file 7383685 1772380018                                         
version 3
run General-0-20260301-15:44:37-2967
attr configname General
attr datetime 20260301-15:44:37
attr datetimef 20260301-154437
attr experiment General
attr inifile omnetpp.ini
attr iterationvars ""
attr iterationvarsd ""
attr iterationvarsf ""
attr measurement ""
attr network ResourceNetwork
attr processid 2967
attr repetition 0
attr replication #0
attr resultdir results
attr runnumber 0
attr seedset 0
config image-path ../../../default_workspace/inet-4.5.4/images
config description "Simple sim where two nodes communicate wirelessly."
config network ResourceNetwork
config sim-time-limit 60s
config *.*.ipv4.arp.typename GlobalArp
config *.mdAutonomousVehicle[*].numApps 1
config *.mdAutonomousVehicle[*].app[0].typename TrafficGenerator
config *.mdAutonomousVehicle[*].app[0].destAddresses "\"edgeServer\""
config *.mdAutonomousVehicle[*].app[0].destPort 5000
config *.mdAutonomousVehicle[*].app[0].messageLength 1024B
config *.mdAutonomousVehicle[*].app[0].sendInterval exponential(12ms)
config *.mdAutonomousVehicle[*].app[0].packetName "\"TaskData\""
config *.mdAutonomousVehicle[*].app[0].minRequiredCPUCycles 300
config *.mdAutonomousVehicle[*].app[0].maxRequiredCPUCycles 500
config *.mdAutonomousVehicle[*].app[0].minDeadlineLatency 0.5
config *.mdAutonomousVehicle[*].app[0].maxDeadlineLatency 20
config *.edgeServer*.numApps 1
config *.edgeServer*.app[0].typename ResourceAllocatorApp
config *.edgeServer*.app[0].localPort 5000
config *.mdAutonomousVehicle[*].wlan[0].typename AckingWirelessInterface
config *.mdAutonomousVehicle[*].wlan[0].mac.useAck false
config *.mdAutonomousVehicle[*].wlan[0].mac.fullDuplex false
config *.mdAutonomousVehicle[*].wlan[0].mac.headerLength 23B
config *.mdAutonomousVehicle[*].wlan[0].radio.typename ApskRadio
config *.mdAutonomousVehicle[*].wlan[0].radio.centerFrequency 2GHz
config *.mdAutonomousVehicle[*].wlan[0].radio.bandwidth 2MHz
config *.mdAutonomousVehicle[*].wlan[0].radio.receiver.bandwidth 2MHz
config *.mdAutonomousVehicle[*].wlan[0].radio.transmitter.power 1.4mW
config *.mdAutonomousVehicle[*].wlan[0].radio.transmitter.preambleDuration 10us
config *.mdAutonomousVehicle[*].wlan[0].radio.transmitter.headerLength 8B
config *.mdAutonomousVehicle[*].wlan[0].radio.receiver.sensitivity -85dBm
config *.mdAutonomousVehicle[*].wlan[0].radio.receiver.energyDetection -85dBm
config *.mdAutonomousVehicle[*].wlan[0].radio.receiver.snirThreshold 4dB
config *.baseStation.forwarding true
config *.baseStation*.wlan[0].typename AckingWirelessInterface
config *.baseStation*.wlan[0].mac.useAck false
config *.baseStation*.wlan[0].mac.fullDuplex false
config *.baseStation*.wlan[0].mac.headerLength 23B
config *.baseStation*.wlan[0].radio.typename ApskRadio
config *.baseStation*.wlan[0].radio.centerFrequency 2GHz
config *.baseStation*.wlan[0].radio.transmitter.power 1.4mW
config *.baseStation*.wlan[0].radio.transmitter.preambleDuration 10us
config *.baseStation*.wlan[0].radio.transmitter.headerLength 8B
config *.baseStation*.wlan[0].radio.receiver.sensitivity -85dBm
config *.baseStation*.wlan[0].radio.receiver.energyDetection -85dBm
config *.baseStation*.wlan[0].radio.receiver.snirThreshold 4dB
config **.wlan[0].radio.bandwidth 2MHz
config **.wlan[0].radio.receiver.bandwidth 2MHz
config *.baseStation*.wlan[0].bitrate 1Mbps
config *.mdAutonomousVehicle*.wlan[0].bitrate 1Mbps
config *.radioMedium.backgroundNoise.power -90dBm
config *.radioMedium.backgroundNoise.centerFrequency 2GHz
config *.radioMedium.backgroundNoise.bandwidth 2MHz
config *.radioMedium.mediumLimitCache.centerFrequency 2GHz
config *.radioMedium.mediumLimitCache.bandwidth 2MHz
config *.radioMedium.mediumLimitCache.minRelativePower -110dB
config *.radioMedium.**ignorePartialInterference true
config *.radioMedium.macAddressFilter true
config **.radio.displayCommunicationRange true
config *.visualizer.mediumVisualizer.displaySignals true
config *.visualizer.physicalLinkVisualizer.displayLinks true
config *.visualizer.physicalLinkVisualizer.packetFilter "\"TaskData\""
config *.visualizer.mobilityVisualizer.displayVelocities true
config *.visualizer.mobilityVisualizer.displayMovementTrails true
config *.hostA.mobility.typename LinearMobility
config *.hostA.mobility.speed 12mps
config *.hostA.mobility.initialMovementHeading 200deg

vector 0 ResourceNetwork.hostA.lo[0].lo rcvdPkFromHl:vector(packetBytes) ETV
attr interpolationmode none
attr recordingmode vector(packetBytes)
attr source packetReceivedFromUpper
attr title "packets received from higher layer, packetBytes"
vector 1 ResourceNetwork.hostA.lo[0].lo passedUpPk:vector(packetBytes) ETV
attr interpolationmode none
attr recordingmode vector(packetBytes)
attr source packetSentToUpper
attr title "packets passed to higher layer, packetBytes"
vector 2 ResourceNetwork.hostA.lo[0] packetDropInterfaceDown:vector(packetBytes) ETV
attr interpolationmode none
attr recordingmode vector(packetBytes)
attr source packetDropReasonIsInterfaceDown(packetDropped)
attr title "packet drops: interface down, packetBytes"
vector 3 ResourceNetwork.hostA.lo[0] packetDropNoCarrier:vector(packetBytes) ETV
attr interpolationmode none
attr recordingmode vector(packetBytes)
attr source packetDropReasonIsNoCarrier(packetDropped)
attr title "packet drops: no carrier, packetBytes"
vector 4 ResourceNetwork.hostA.wlan[0].agent sentRequest:vector ETV
attr recordingmode vector
attr title "sent requests"
vector 5 ResourceNetwork.hostA.wlan[0].agent acceptConfirm:vector ETV
attr recordingmode vector
attr title "accepted confirms"
vector 6 ResourceNetwork.hostA.wlan[0].agent dropConfirm:vector ETV
attr recordingmode vector
attr title "dropped confirms"
vector 7 ResourceNetwork.hostA.wlan[0].mac.dcf.channelAccess.pendingQueue queueLength:vector ETV
attr autoWarmupFilter false
attr interpolationmode sample-hold
attr recordingmode vector
attr source "warmup(atomic(constant0(packetPushEnded) + count(packetPushStarted) - count(packetPulled) - count(packetRemoved) - count(packetDropped)))"
attr title "queue length"
attr unit pk
vector 8 ResourceNetwork.hostA.wlan[0].mac.dcf.channelAccess.pendingQueue queueBitLength:vector ETV
attr autoWarmupFilter false
attr interpolationmode sample-hold
attr recordingmode vector
attr source "warmup(atomic(constant0(packetPushEnded) + sum(packetLength(packetPushStarted)) - sum(packetLength(packetPulled)) - sum(packetLength(packetRemoved)) - sum(packetLength(packetDropped))))"
attr title "queue bit length"
attr unit b
vector 9 ResourceNetwork.hostA.wlan[0].mac.dcf.channelAccess.pendingQueue queueingTime:vector ETV
attr interpolationmode none
attr recordingmode vector
attr source queueingTime(packetPulled)
attr title "queueing times"
attr unit s
vector 10 ResourceNetwork.hostA.wlan[0].mac.dcf.channelAccess.pendingQueue incomingPacketLengths:vector ETV
attr interpolationmode none
attr recordingmode vector
attr source packetLength(packetPushStarted)
attr title "incoming packet lengths"
attr unit b
vector 11 ResourceNetwork.hostA.wlan[0].mac.dcf.channelAccess.pendingQueue incomingDataRate:vector ETV
attr interpolationmode linear
attr recordingmode vector
attr source throughput(packetPushStarted)
attr title "incoming datarate"
attr unit bps
vector 12 ResourceNetwork.hostA.wlan[0].mac.dcf.channelAccess.pendingQueue outgoingPacketLengths:vector ETV
attr interpolationmode none
attr recordingmode vector
attr source packetLength(packetPulled)
attr title "outgoing packet lengths"
attr unit b
vector 13 ResourceNetwork.hostA.wlan[0].mac.dcf.channelAccess.pendingQueue outgoingDataRate:vector ETV
attr interpolationmode linear
attr recordingmode vector
attr source throughput(packetPulled)
attr title "outgoing datarate"
attr unit bps
vector 14 ResourceNetwork.hostA.wlan[0].mac.dcf.channelAccess.pendingQueue droppedPacketLengthsQueueOverflow:vector ETV
attr interpolationmode none
attr recordingmode vector
attr source packetLength(packetDropReasonIsQueueOverflow(packetDropped))
attr title "dropped packet lengths: queue overflow"
attr unit b
vector 15 ResourceNetwork.hostA.wlan[0].mac.dcf.channelAccess.pendingQueue flowQueueingTime:vector ETV
attr interpolationmode none
attr recordingmode vector
attr source queueingTime(demuxFlow(packetPulled))
attr title "flow queueing times"
attr unit s
vector 16 ResourceNetwork.hostA.wlan[0].mac.dcf.channelAccess.pendingQueue flowIncomingDataRate:vector ETV
attr interpolationmode linear
attr recordingmode vector
attr source throughput(flowPacketLength(demuxFlow(packetPushStarted)))
attr title "flow specific incoming data rate"
attr unit bps
vector 17 ResourceNetwork.hostA.wlan[0].mac.dcf.channelAccess.pendingQueue flowOutgoingDataRate:vector ETV
attr interpolationmode linear
attr recordingmode vector
attr source throughput(flowPacketLength(demuxFlow(packetPulled)))
attr title "flow specific outgoing data rate"
attr unit bps
vector 18 ResourceNetwork.hostA.wlan[0].mac.dcf.channelAccess.inProgressFrames queueingTime:vector ETV
attr interpolationmode none
attr recordingmode vector
attr source queueingTime(packetDequeued)
attr title "queueing times"
vector 19 ResourceNetwork.hostA.wlan[0].mac.dcf.channelAccess.inProgressFrames queueLength:vector ETV
attr autoWarmupFilter false
attr interpolationmode sample-hold
attr recordingmode vector
attr source "warmup(count(packetEnqueued) - count(packetDequeued))"
attr title "queue length"
vector 20 ResourceNetwork.hostA.wlan[0].mac.dcf.channelAccess.contention backoffPeriodGenerated:vector ETV
attr interpolationmode none
attr recordingmode vector
attr title "backoff periods"
vector 21 ResourceNetwork.hostA.wlan[0].mac.dcf.channelAccess.contention backoffActive:vector ETV
attr autoWarmupFilter false
attr interpolationmode sample-hold
attr recordingmode vector
attr source warmup(count(backoffStarted)-count(backoffStopped))
attr title "backoff active"
vector 22 ResourceNetwork.hostA.wlan[0].mac.dcf.channelAccess.contention stateChanged:vector ETV
attr enum IDLE,DEFER,IFS_AND_BACKOFF
attr interpolationmode none
attr recordingmode vector
attr title "contention state changed"
attr type enum
vector 23 ResourceNetwork.hostA.wlan[0].mac.dcf.recipientMacDataService packetDropDuplicateDetected:vector(packetBytes) ETV
attr interpolationmode none
attr recordingmode vector(packetBytes)
attr source packetDropReasonIsDuplicateDetected(packetDropped)
attr title "packet drops: duplicate detected, packetBytes"
vector 24 ResourceNetwork.hostA.wlan[0].mac.dcf.recoveryProcedure contentionWindowChanged:vector ETV
attr interpolationmode sample-hold
attr recordingmode vector
attr title "contention window"
vector 25 ResourceNetwork.hostA.wlan[0].mac.dcf packetSentToPeer:vector(packetBytes) ETV
attr interpolationmode none
attr recordingmode vector(packetBytes)
attr title "packets sent, packetBytes"
vector 26 ResourceNetwork.hostA.wlan[0].mac.dcf packetSentToPeerUnicast:vector(packetBytes) ETV
attr interpolationmode none
attr recordingmode vector(packetBytes)
attr source ieee80211Unicast(packetSentToPeer)
attr title "packets sent: unicast, packetBytes"
vector 27 ResourceNetwork.hostA.wlan[0].mac.dcf packetSentToPeerMulticast:vector(packetBytes) ETV
attr interpolationmode none
attr recordingmode vector(packetBytes)
attr source ieee80211Multicast(packetSentToPeer)
attr title "packets sent: multicast, packetBytes"
vector 28 ResourceNetwork.hostA.wlan[0].mac.dcf packetSentToPeerBroadcast:vector(packetBytes) ETV
attr interpolationmode none
attr recordingmode vector(packetBytes)
attr source ieee80211Broadcast(packetSentToPeer)
attr title "packets sent: broadcast , packetBytes"
vector 29 ResourceNetwork.hostA.wlan[0].mac.dcf packetSentToPeerWithRetry:vector(packetBytes) ETV
attr interpolationmode none
attr recordingmode vector(packetBytes)
attr source ieee80211Retry(packetSentToPeer)
attr title "packets sent: with retry, packetBytes"
vector 30 ResourceNetwork.hostA.wlan[0].mac.dcf packetSentToPeerWithoutRetry:vector(packetBytes) ETV
attr interpolationmode none
attr recordingmode vector(packetBytes)
attr source ieee80211NotRetry(packetSentToPeer)
attr title "packets sent: without retry, packetBytes"
vector 31 ResourceNetwork.hostA.wlan[0].mac.dcf packetReceivedFromPeer:vector(packetBytes) ETV
attr interpolationmode none
attr recordingmode vector(packetBytes)
attr title "packets received, packetBytes"
vector 32 ResourceNetwork.hostA.wlan[0].mac.dcf packetReceivedFromPeerUnicast:vector(packetBytes) ETV
attr interpolationmode none
attr recordingmode vector(packetBytes)
attr source ieee80211Unicast(packetReceivedFromPeer)
attr title "packets received: unicast, packetBytes"
vector 33 ResourceNetwork.hostA.wlan[0].mac.dcf packetReceivedFromPeerMulticast:vector(packetBytes) ETV
attr interpolationmode none
attr recordingmode vector(packetBytes)
attr source ieee80211Multicast(packetReceivedFromPeer)
attr title "packets received: multicast, packetBytes"
vector 34 ResourceNetwork.hostA.wlan[0].mac.dcf packetReceivedFromPeerBroadcast:vector(packetBytes) ETV
attr interpolationmode none
attr recordingmode vector(packetBytes)
attr source ieee80211Broadcast(packetReceivedFromPeer)
attr title "packets received: broadcast, packetBytes"
vector 35 ResourceNetwork.hostA.wlan[0].mac.dcf packetReceivedFromPeerWithRetry:vector(packetBytes) ETV
attr interpolationmode none
attr recordingmode vector(packetBytes)
attr source ieee80211Retry(packetReceivedFromPeer)
attr title "packets received: with retry, packetBytes"
vector 36 ResourceNetwork.hostA.wlan[0].mac.dcf packetReceivedFromPeerWithoutRetry:vector(packetBytes) ETV
attr interpolationmode none
attr recordingmode vector(packetBytes)
attr source ieee80211NotRetry(packetReceivedFromPeer)
attr title "packets received: without retry, packetBytes"
vector 37 ResourceNetwork.hostA.wlan[0].mac.dcf packetDrop:vector(packetBytes) ETV
attr interpolationmode none
attr recordingmode vector(packetBytes)
attr source packetDropped
attr title "packet drops, packetBytes"
vector 38 ResourceNetwork.hostA.wlan[0].mac.dcf packetDropNotAddressedToUs:vector(packetBytes) ETV
attr interpolationmode none
attr recordingmode vector(packetBytes)
attr source packetDropReasonIsNotAddressedToUs(packetDropped)
attr title "packet drops: not addressed to us, packetBytes"
vector 39 ResourceNetwork.hostA.wlan[0].mac.dcf packetDropQueueOverflow:vector(packetBytes) ETV
attr interpolationmode none
attr recordingmode vector(packetBytes)
attr source packetDropReasonIsQueueOverflow(packetDropped)
attr title "packet drops: queue overflow, packetBytes"
vector 40 ResourceNetwork.hostA.wlan[0].mac.dcf packetDropRetryLimitReached:vector(packetBytes) ETV
attr interpolationmode none
attr recordingmode vector(packetBytes)
attr source packetDropReasonIsRetryLimitReached(packetDropped)
attr title "packet drops: retry limit reached, packetBytes"
vector 41 ResourceNetwork.hostA.wlan[0].mac.dcf frameSequenceActive:vector ETV
attr autoWarmupFilter false
attr interpolationmode sample-hold
attr recordingmode vector
attr source warmup(count(frameSequenceStarted)-count(frameSequenceFinished))
attr title "frame sequence active"
vector 42 ResourceNetwork.hostA.wlan[0].mac.dcf datarateSelected:vector ETV
attr interpolationmode none
attr recordingmode vector
attr title "datarates selected"
vector 43 ResourceNetwork.hostA.wlan[0].mac.rx nav:vector ETV
attr interpolationmode linear
attr recordingmode vector
attr source navChanged
attr title "network allocation vector"
vector 44 ResourceNetwork.hostA.wlan[0].mac packetSentToUpper:vector(packetBytes) ETV
attr interpolationmode none
attr recordingmode vector(packetBytes)
attr title "packets sent to upper layer, packetBytes"
vector 45 ResourceNetwork.hostA.wlan[0].mac packetSentToLower:vector(packetBytes) ETV
attr interpolationmode none
attr recordingmode vector(packetBytes)
attr title "packets sent to lower layer, packetBytes"
vector 46 ResourceNetwork.hostA.wlan[0].mac packetReceivedFromUpper:vector(packetBytes) ETV
attr interpolationmode none
attr recordingmode vector(packetBytes)
attr title "packets received from upper layer, packetBytes"
vector 47 ResourceNetwork.hostA.wlan[0].mac packetReceivedFromLower:vector(packetBytes) ETV
attr interpolationmode none
attr recordingmode vector(packetBytes)
attr title "packets received from lower layer, packetBytes"
vector 48 ResourceNetwork.hostA.wlan[0].mac packetDrop:vector(packetBytes) ETV
attr interpolationmode none
attr recordingmode vector(packetBytes)
attr source packetDropped
attr title "packet drops, packetBytes"
vector 49 ResourceNetwork.hostA.wlan[0].mac packetDropIncorrectlyReceived:vector(packetBytes) ETV
attr interpolationmode none
attr recordingmode vector(packetBytes)
attr source packetDropReasonIsIncorrectlyReceived(packetDropped)
attr title "packet drops: incorrectly received, packetBytes"
vector 50 ResourceNetwork.hostA.wlan[0].mac packetDropNotAddressedToUs:vector(packetBytes) ETV
attr interpolationmode none
attr recordingmode vector(packetBytes)
attr source packetDropReasonIsNotAddressedToUs(packetDropped)
attr title "packet drops: not addressed to us, packetBytes"
vector 51 ResourceNetwork.hostA.wlan[0].mac packetDropQueueOverflow:vector(packetBytes) ETV
attr interpolationmode none
attr recordingmode vector(packetBytes)
attr source packetDropReasonIsQueueOverflow(packetDropped)
attr title "packet drops: queue overflow, packetBytes"
vector 52 ResourceNetwork.hostA.wlan[0].mac packetDropRetryLimitReached:vector(packetBytes) ETV
attr interpolationmode none
attr recordingmode vector(packetBytes)
attr source packetDropReasonIsRetryLimitReached(packetDropped)
attr title "packet drops: retry limit reached, packetBytes"
vector 53 ResourceNetwork.hostA.wlan[0].mac packetDropDuplicateDetected:vector(packetBytes) ETV
attr interpolationmode none
attr recordingmode vector(packetBytes)
attr source packetDropReasonIsDuplicateDetected(packetDropped)
attr title "packet drops: duplicate detected, packetBytes"
vector 54 ResourceNetwork.hostA.wlan[0].mac packetDropOther:vector(packetBytes) ETV
attr interpolationmode none
attr recordingmode vector(packetBytes)
attr source packetDropReasonIsOther(packetDropped)
attr title "packet drops: other, packetBytes"
vector 55 ResourceNetwork.hostA.wlan[0].radio radioMode:vector ETV
attr interpolationmode sample-hold
attr recordingmode vector
attr source radioModeChanged
attr title "Radio mode"
vector 56 ResourceNetwork.hostA.wlan[0].radio receptionState:vector ETV
attr interpolationmode sample-hold
attr recordingmode vector
attr source receptionStateChanged
attr title "Radio reception state"
vector 57 ResourceNetwork.hostA.wlan[0].radio transmissionState:vector ETV
attr interpolationmode sample-hold
attr recordingmode vector
attr source transmissionStateChanged
attr title "Radio transmission state"
vector 58 ResourceNetwork.hostA.wlan[0].radio radioChannel:vector ETV
attr interpolationmode sample-hold
attr recordingmode vector
attr source radioChannelChanged
attr title "Radio channel"
vector 59 ResourceNetwork.hostA.wlan[0] packetDropInterfaceDown:vector(packetBytes) ETV
attr interpolationmode none
attr recordingmode vector(packetBytes)
attr source packetDropReasonIsInterfaceDown(packetDropped)
attr title "packet drops: interface down, packetBytes"
vector 60 ResourceNetwork.hostA.wlan[0] packetDropNoCarrier:vector(packetBytes) ETV
attr interpolationmode none
attr recordingmode vector(packetBytes)
attr source packetDropReasonIsNoCarrier(packetDropped)
attr title "packet drops: no carrier, packetBytes"
vector 61 ResourceNetwork.hostA.ipv4.ip packetDropAddressResolutionFailed:vector(packetBytes) ETV
attr interpolationmode none
attr recordingmode vector(packetBytes)
attr source packetDropReasonIsAddressResolutionFailed(packetDropped)
attr title "packet drop: address resolution failed, packetBytes"
vector 62 ResourceNetwork.hostA.ipv4.ip packetDropHopLimitReached:vector(packetBytes) ETV
attr interpolationmode none
attr recordingmode vector(packetBytes)
attr source packetDropReasonIsHopLimitReached(packetDropped)
attr title "packet drop: hop limit reached, packetBytes"
vector 63 ResourceNetwork.hostA.ipv4.ip packetDropForwardingDisabled:vector(packetBytes) ETV
attr interpolationmode none
attr recordingmode vector(packetBytes)
attr source packetDropReasonIsForwardingDisabled(packetDropped)
attr title "packet drop: forwarding disabled, packetBytes"
vector 64 ResourceNetwork.hostA.ipv4.ip packetDropNoInterfaceFound:vector(packetBytes) ETV
attr interpolationmode none
attr recordingmode vector(packetBytes)
attr source packetDropReasonIsNoInterfaceFound(packetDropped)
attr title "packet drop: no interface found, packetBytes"
vector 65 ResourceNetwork.hostA.ipv4.ip packetDropNoRouteFound:vector(packetBytes) ETV
attr interpolationmode none
attr recordingmode vector(packetBytes)
attr source packetDropReasonIsNoRouteFound(packetDropped)
attr title "packet drop: no route found, packetBytes"
vector 66 ResourceNetwork.hostA.ipv4.ip packetDropUndefined:vector(packetBytes) ETV
attr interpolationmode none
attr recordingmode vector(packetBytes)
attr source packetDropReasonIsUndefined(packetDropped)
attr title "packet drop: undefined, packetBytes"
vector 67 ResourceNetwork.hostA.udp packetSent:vector(packetBytes) ETV
attr interpolationmode none
attr recordingmode vector(packetBytes)
attr source packetSent
attr title "packets sent, packetBytes"
vector 68 ResourceNetwork.hostA.udp packetReceived:vector(packetBytes) ETV
attr interpolationmode none
attr recordingmode vector(packetBytes)
attr source packetReceived
attr title "packets received, packetBytes"
vector 69 ResourceNetwork.hostA.udp passedUpPk:vector(count) ETV
attr interpolationmode none
attr recordingmode vector(count)
attr source packetSentToUpper
attr title "packets passed up, count"
vector 70 ResourceNetwork.hostA.udp droppedPkWrongPort:vector(count) ETV
attr interpolationmode none
attr recordingmode vector(count)
attr source packetDropReasonIsNoPortFound(packetDropped)
attr title "packets dropped (wrong port), count"
vector 71 ResourceNetwork.hostA.udp droppedPkBadChecksum:vector(count) ETV
attr interpolationmode none
attr recordingmode vector(count)
attr source packetDropReasonIsIncorrectlyReceived(packetDropped)
attr title "packets dropped (checksum error), count"
vector 72 ResourceNetwork.mdMobilePhone.lo[0].lo rcvdPkFromHl:vector(packetBytes) ETV
attr interpolationmode none
attr recordingmode vector(packetBytes)
attr source packetReceivedFromUpper
attr title "packets received from higher layer, packetBytes"
vector 73 ResourceNetwork.mdMobilePhone.lo[0].lo passedUpPk:vector(packetBytes) ETV
attr interpolationmode none
attr recordingmode vector(packetBytes)
attr source packetSentToUpper
attr title "packets passed to higher layer, packetBytes"
vector 74 ResourceNetwork.mdMobilePhone.lo[0] packetDropInterfaceDown:vector(packetBytes) ETV
attr interpolationmode none
attr recordingmode vector(packetBytes)
attr source packetDropReasonIsInterfaceDown(packetDropped)
attr title "packet drops: interface down, packetBytes"
vector 75 ResourceNetwork.mdMobilePhone.lo[0] packetDropNoCarrier:vector(packetBytes) ETV
attr interpolationmode none
attr recordingmode vector(packetBytes)
attr source packetDropReasonIsNoCarrier(packetDropped)
attr title "packet drops: no carrier, packetBytes"
vector 76 ResourceNetwork.mdMobilePhone.wlan[0].agent sentRequest:vector ETV
attr recordingmode vector
attr title "sent requests"
vector 77 ResourceNetwork.mdMobilePhone.wlan[0].agent acceptConfirm:vector ETV
attr recordingmode vector
attr title "accepted confirms"
vector 78 ResourceNetwork.mdMobilePhone.wlan[0].agent dropConfirm:vector ETV
attr recordingmode vector
attr title "dropped confirms"
vector 79 ResourceNetwork.mdMobilePhone.wlan[0].mac.dcf.channelAccess.pendingQueue queueLength:vector ETV
attr autoWarmupFilter false
attr interpolationmode sample-hold
attr recordingmode vector
attr source "warmup(atomic(constant0(packetPushEnded) + count(packetPushStarted) - count(packetPulled) - count(packetRemoved) - count(packetDropped)))"
attr title "queue length"
attr unit pk
vector 80 ResourceNetwork.mdMobilePhone.wlan[0].mac.dcf.channelAccess.pendingQueue queueBitLength:vector ETV
attr autoWarmupFilter false
attr interpolationmode sample-hold
attr recordingmode vector
attr source "warmup(atomic(constant0(packetPushEnded) + sum(packetLength(packetPushStarted)) - sum(packetLength(packetPulled)) - sum(packetLength(packetRemoved)) - sum(packetLength(packetDropped))))"
attr title "queue bit length"
attr unit b
vector 81 ResourceNetwork.mdMobilePhone.wlan[0].mac.dcf.channelAccess.pendingQueue queueingTime:vector ETV
attr interpolationmode none
attr recordingmode vector
attr source queueingTime(packetPulled)
attr title "queueing times"
attr unit s
vector 82 ResourceNetwork.mdMobilePhone.wlan[0].mac.dcf.channelAccess.pendingQueue incomingPacketLengths:vector ETV
attr interpolationmode none
attr recordingmode vector
attr source packetLength(packetPushStarted)
attr title "incoming packet lengths"
attr unit b
vector 83 ResourceNetwork.mdMobilePhone.wlan[0].mac.dcf.channelAccess.pendingQueue incomingDataRate:vector ETV
attr interpolationmode linear
attr recordingmode vector
attr source throughput(packetPushStarted)
attr title "incoming datarate"
attr unit bps
vector 84 ResourceNetwork.mdMobilePhone.wlan[0].mac.dcf.channelAccess.pendingQueue outgoingPacketLengths:vector ETV
attr interpolationmode none
attr recordingmode vector
attr source packetLength(packetPulled)
attr title "outgoing packet lengths"
attr unit b
vector 85 ResourceNetwork.mdMobilePhone.wlan[0].mac.dcf.channelAccess.pendingQueue outgoingDataRate:vector ETV
attr interpolationmode linear
attr recordingmode vector
attr source throughput(packetPulled)
attr title "outgoing datarate"
attr unit bps
vector 86 ResourceNetwork.mdMobilePhone.wlan[0].mac.dcf.channelAccess.pendingQueue droppedPacketLengthsQueueOverflow:vector ETV
attr interpolationmode none
attr recordingmode vector
attr source packetLength(packetDropReasonIsQueueOverflow(packetDropped))
attr title "dropped packet lengths: queue overflow"
attr unit b
vector 87 ResourceNetwork.mdMobilePhone.wlan[0].mac.dcf.channelAccess.pendingQueue flowQueueingTime:vector ETV
attr interpolationmode none
attr recordingmode vector
attr source queueingTime(demuxFlow(packetPulled))
attr title "flow queueing times"
attr unit s
vector 88 ResourceNetwork.mdMobilePhone.wlan[0].mac.dcf.channelAccess.pendingQueue flowIncomingDataRate:vector ETV
attr interpolationmode linear
attr recordingmode vector
attr source throughput(flowPacketLength(demuxFlow(packetPushStarted)))
attr title "flow specific incoming data rate"
attr unit bps
vector 89 ResourceNetwork.mdMobilePhone.wlan[0].mac.dcf.channelAccess.pendingQueue flowOutgoingDataRate:vector ETV
attr interpolationmode linear
attr recordingmode vector
attr source throughput(flowPacketLength(demuxFlow(packetPulled)))
attr title "flow specific outgoing data rate"
attr unit bps
vector 90 ResourceNetwork.mdMobilePhone.wlan[0].mac.dcf.channelAccess.inProgressFrames queueingTime:vector ETV
attr interpolationmode none
attr recordingmode vector
attr source queueingTime(packetDequeued)
attr title "queueing times"
vector 91 ResourceNetwork.mdMobilePhone.wlan[0].mac.dcf.channelAccess.inProgressFrames queueLength:vector ETV
attr autoWarmupFilter false
attr interpolationmode sample-hold
attr recordingmode vector
attr source "warmup(count(packetEnqueued) - count(packetDequeued))"
attr title "queue length"
vector 92 ResourceNetwork.mdMobilePhone.wlan[0].mac.dcf.channelAccess.contention backoffPeriodGenerated:vector ETV
attr interpolationmode none
attr recordingmode vector
attr title "backoff periods"
vector 93 ResourceNetwork.mdMobilePhone.wlan[0].mac.dcf.channelAccess.contention backoffActive:vector ETV
attr autoWarmupFilter false
attr interpolationmode sample-hold
attr recordingmode vector
attr source warmup(count(backoffStarted)-count(backoffStopped))
attr title "backoff active"
vector 94 ResourceNetwork.mdMobilePhone.wlan[0].mac.dcf.channelAccess.contention stateChanged:vector ETV
attr enum IDLE,DEFER,IFS_AND_BACKOFF
attr interpolationmode none
attr recordingmode vector
attr title "contention state changed"
attr type enum
vector 95 ResourceNetwork.mdMobilePhone.wlan[0].mac.dcf.recipientMacDataService packetDropDuplicateDetected:vector(packetBytes) ETV
attr interpolationmode none
attr recordingmode vector(packetBytes)
attr source packetDropReasonIsDuplicateDetected(packetDropped)
attr title "packet drops: duplicate detected, packetBytes"
vector 96 ResourceNetwork.mdMobilePhone.wlan[0].mac.dcf.recoveryProcedure contentionWindowChanged:vector ETV
attr interpolationmode sample-hold
attr recordingmode vector
attr title "contention window"
vector 97 ResourceNetwork.mdMobilePhone.wlan[0].mac.dcf packetSentToPeer:vector(packetBytes) ETV
attr interpolationmode none
attr recordingmode vector(packetBytes)
attr title "packets sent, packetBytes"
vector 98 ResourceNetwork.mdMobilePhone.wlan[0].mac.dcf packetSentToPeerUnicast:vector(packetBytes) ETV
attr interpolationmode none
attr recordingmode vector(packetBytes)
attr source ieee80211Unicast(packetSentToPeer)
attr title "packets sent: unicast, packetBytes"
vector 99 ResourceNetwork.mdMobilePhone.wlan[0].mac.dcf packetSentToPeerMulticast:vector(packetBytes) ETV
attr interpolationmode none
attr recordingmode vector(packetBytes)
attr source ieee80211Multicast(packetSentToPeer)
attr title "packets sent: multicast, packetBytes"
vector 100 ResourceNetwork.mdMobilePhone.wlan[0].mac.dcf packetSentToPeerBroadcast:vector(packetBytes) ETV
attr interpolationmode none
attr recordingmode vector(packetBytes)
attr source ieee80211Broadcast(packetSentToPeer)
attr title "packets sent: broadcast , packetBytes"
vector 101 ResourceNetwork.mdMobilePhone.wlan[0].mac.dcf packetSentToPeerWithRetry:vector(packetBytes) ETV
attr interpolationmode none
attr recordingmode vector(packetBytes)
attr source ieee80211Retry(packetSentToPeer)
attr title "packets sent: with retry, packetBytes"
vector 102 ResourceNetwork.mdMobilePhone.wlan[0].mac.dcf packetSentToPeerWithoutRetry:vector(packetBytes) ETV
attr interpolationmode none
attr recordingmode vector(packetBytes)
attr source ieee80211NotRetry(packetSentToPeer)
attr title "packets sent: without retry, packetBytes"
vector 103 ResourceNetwork.mdMobilePhone.wlan[0].mac.dcf packetReceivedFromPeer:vector(packetBytes) ETV
attr interpolationmode none
attr recordingmode vector(packetBytes)
attr title "packets received, packetBytes"
vector 104 ResourceNetwork.mdMobilePhone.wlan[0].mac.dcf packetReceivedFromPeerUnicast:vector(packetBytes) ETV
attr interpolationmode none
attr recordingmode vector(packetBytes)
attr source ieee80211Unicast(packetReceivedFromPeer)
attr title "packets received: unicast, packetBytes"
vector 105 ResourceNetwork.mdMobilePhone.wlan[0].mac.dcf packetReceivedFromPeerMulticast:vector(packetBytes) ETV
attr interpolationmode none
attr recordingmode vector(packetBytes)
attr source ieee80211Multicast(packetReceivedFromPeer)
attr title "packets received: multicast, packetBytes"
vector 106 ResourceNetwork.mdMobilePhone.wlan[0].mac.dcf packetReceivedFromPeerBroadcast:vector(packetBytes) ETV
attr interpolationmode none
attr recordingmode vector(packetBytes)
attr source ieee80211Broadcast(packetReceivedFromPeer)
attr title "packets received: broadcast, packetBytes"
vector 107 ResourceNetwork.mdMobilePhone.wlan[0].mac.dcf packetReceivedFromPeerWithRetry:vector(packetBytes) ETV
attr interpolationmode none
attr recordingmode vector(packetBytes)
attr source ieee80211Retry(packetReceivedFromPeer)
attr title "packets received: with retry, packetBytes"
vector 108 ResourceNetwork.mdMobilePhone.wlan[0].mac.dcf packetReceivedFromPeerWithoutRetry:vector(packetBytes) ETV
attr interpolationmode none
attr recordingmode vector(packetBytes)
attr source ieee80211NotRetry(packetReceivedFromPeer)
attr title "packets received: without retry, packetBytes"
vector 109 ResourceNetwork.mdMobilePhone.wlan[0].mac.dcf packetDrop:vector(packetBytes) ETV
attr interpolationmode none
attr recordingmode vector(packetBytes)
attr source packetDropped
attr title "packet drops, packetBytes"
vector 110 ResourceNetwork.mdMobilePhone.wlan[0].mac.dcf packetDropNotAddressedToUs:vector(packetBytes) ETV
attr interpolationmode none
attr recordingmode vector(packetBytes)
attr source packetDropReasonIsNotAddressedToUs(packetDropped)
attr title "packet drops: not addressed to us, packetBytes"
vector 111 ResourceNetwork.mdMobilePhone.wlan[0].mac.dcf packetDropQueueOverflow:vector(packetBytes) ETV
attr interpolationmode none
attr recordingmode vector(packetBytes)
attr source packetDropReasonIsQueueOverflow(packetDropped)
attr title "packet drops: queue overflow, packetBytes"
vector 112 ResourceNetwork.mdMobilePhone.wlan[0].mac.dcf packetDropRetryLimitReached:vector(packetBytes) ETV
attr interpolationmode none
attr recordingmode vector(packetBytes)
attr source packetDropReasonIsRetryLimitReached(packetDropped)
attr title "packet drops: retry limit reached, packetBytes"
vector 113 ResourceNetwork.mdMobilePhone.wlan[0].mac.dcf frameSequenceActive:vector ETV
attr autoWarmupFilter false
attr interpolationmode sample-hold
attr recordingmode vector
attr source warmup(count(frameSequenceStarted)-count(frameSequenceFinished))
attr title "frame sequence active"
vector 114 ResourceNetwork.mdMobilePhone.wlan[0].mac.dcf datarateSelected:vector ETV
attr interpolationmode none
attr recordingmode vector
attr title "datarates selected"
vector 115 ResourceNetwork.mdMobilePhone.wlan[0].mac.rx nav:vector ETV
attr interpolationmode linear
attr recordingmode vector
attr source navChanged
attr title "network allocation vector"
vector 116 ResourceNetwork.mdMobilePhone.wlan[0].mac packetSentToUpper:vector(packetBytes) ETV
attr interpolationmode none
attr recordingmode vector(packetBytes)
attr title "packets sent to upper layer, packetBytes"
vector 117 ResourceNetwork.mdMobilePhone.wlan[0].mac packetSentToLower:vector(packetBytes) ETV
attr interpolationmode none
attr recordingmode vector(packetBytes)
attr title "packets sent to lower layer, packetBytes"
vector 118 ResourceNetwork.mdMobilePhone.wlan[0].mac packetReceivedFromUpper:vector(packetBytes) ETV
attr interpolationmode none
attr recordingmode vector(packetBytes)
attr title "packets received from upper layer, packetBytes"
vector 119 ResourceNetwork.mdMobilePhone.wlan[0].mac packetReceivedFromLower:vector(packetBytes) ETV
attr interpolationmode none
attr recordingmode vector(packetBytes)
attr title "packets received from lower layer, packetBytes"
vector 120 ResourceNetwork.mdMobilePhone.wlan[0].mac packetDrop:vector(packetBytes) ETV
attr interpolationmode none
attr recordingmode vector(packetBytes)
attr source packetDropped
attr title "packet drops, packetBytes"
vector 121 ResourceNetwork.mdMobilePhone.wlan[0].mac packetDropIncorrectlyReceived:vector(packetBytes) ETV
attr interpolationmode none
attr recordingmode vector(packetBytes)
attr source packetDropReasonIsIncorrectlyReceived(packetDropped)
attr title "packet drops: incorrectly received, packetBytes"
vector 122 ResourceNetwork.mdMobilePhone.wlan[0].mac packetDropNotAddressedToUs:vector(packetBytes) ETV
attr interpolationmode none
attr recordingmode vector(packetBytes)
attr source packetDropReasonIsNotAddressedToUs(packetDropped)
attr title "packet drops: not addressed to us, packetBytes"
vector 123 ResourceNetwork.mdMobilePhone.wlan[0].mac packetDropQueueOverflow:vector(packetBytes) ETV
attr interpolationmode none
attr recordingmode vector(packetBytes)
attr source packetDropReasonIsQueueOverflow(packetDropped)
attr title "packet drops: queue overflow, packetBytes"
vector 124 ResourceNetwork.mdMobilePhone.wlan[0].mac packetDropRetryLimitReached:vector(packetBytes) ETV
attr interpolationmode none
attr recordingmode vector(packetBytes)
attr source packetDropReasonIsRetryLimitReached(packetDropped)
attr title "packet drops: retry limit reached, packetBytes"
vector 125 ResourceNetwork.mdMobilePhone.wlan[0].mac packetDropDuplicateDetected:vector(packetBytes) ETV
attr interpolationmode none
attr recordingmode vector(packetBytes)
attr source packetDropReasonIsDuplicateDetected(packetDropped)
attr title "packet drops: duplicate detected, packetBytes"
vector 126 ResourceNetwork.mdMobilePhone.wlan[0].mac packetDropOther:vector(packetBytes) ETV
attr interpolationmode none
attr recordingmode vector(packetBytes)
attr source packetDropReasonIsOther(packetDropped)
attr title "packet drops: other, packetBytes"
vector 127 ResourceNetwork.mdMobilePhone.wlan[0].radio radioMode:vector ETV
attr interpolationmode sample-hold
attr recordingmode vector
attr source radioModeChanged
attr title "Radio mode"
vector 128 ResourceNetwork.mdMobilePhone.wlan[0].radio receptionState:vector ETV
attr interpolationmode sample-hold
attr recordingmode vector
attr source receptionStateChanged
attr title "Radio reception state"
vector 129 ResourceNetwork.mdMobilePhone.wlan[0].radio transmissionState:vector ETV
attr interpolationmode sample-hold
attr recordingmode vector
attr source transmissionStateChanged
attr title "Radio transmission state"
vector 130 ResourceNetwork.mdMobilePhone.wlan[0].radio radioChannel:vector ETV
attr interpolationmode sample-hold
attr recordingmode vector
attr source radioChannelChanged
attr title "Radio channel"
vector 131 ResourceNetwork.mdMobilePhone.wlan[0] packetDropInterfaceDown:vector(packetBytes) ETV
attr interpolationmode none
attr recordingmode vector(packetBytes)
attr source packetDropReasonIsInterfaceDown(packetDropped)
attr title "packet drops: interface down, packetBytes"
vector 132 ResourceNetwork.mdMobilePhone.wlan[0] packetDropNoCarrier:vector(packetBytes) ETV
attr interpolationmode none
attr recordingmode vector(packetBytes)
attr source packetDropReasonIsNoCarrier(packetDropped)
attr title "packet drops: no carrier, packetBytes"
vector 133 ResourceNetwork.mdMobilePhone.ipv4.ip packetDropAddressResolutionFailed:vector(packetBytes) ETV
attr interpolationmode none
attr recordingmode vector(packetBytes)
attr source packetDropReasonIsAddressResolutionFailed(packetDropped)
attr title "packet drop: address resolution failed, packetBytes"
vector 134 ResourceNetwork.mdMobilePhone.ipv4.ip packetDropHopLimitReached:vector(packetBytes) ETV
attr interpolationmode none
attr recordingmode vector(packetBytes)
attr source packetDropReasonIsHopLimitReached(packetDropped)
attr title "packet drop: hop limit reached, packetBytes"
vector 135 ResourceNetwork.mdMobilePhone.ipv4.ip packetDropForwardingDisabled:vector(packetBytes) ETV
attr interpolationmode none
attr recordingmode vector(packetBytes)
attr source packetDropReasonIsForwardingDisabled(packetDropped)
attr title "packet drop: forwarding disabled, packetBytes"
vector 136 ResourceNetwork.mdMobilePhone.ipv4.ip packetDropNoInterfaceFound:vector(packetBytes) ETV
attr interpolationmode none
attr recordingmode vector(packetBytes)
attr source packetDropReasonIsNoInterfaceFound(packetDropped)
attr title "packet drop: no interface found, packetBytes"
vector 137 ResourceNetwork.mdMobilePhone.ipv4.ip packetDropNoRouteFound:vector(packetBytes) ETV
attr interpolationmode none
attr recordingmode vector(packetBytes)
attr source packetDropReasonIsNoRouteFound(packetDropped)
attr title "packet drop: no route found, packetBytes"
vector 138 ResourceNetwork.mdMobilePhone.ipv4.ip packetDropUndefined:vector(packetBytes) ETV
attr interpolationmode none
attr recordingmode vector(packetBytes)
attr source packetDropReasonIsUndefined(packetDropped)
attr title "packet drop: undefined, packetBytes"
vector 139 ResourceNetwork.mdMobilePhone.udp packetSent:vector(packetBytes) ETV
attr interpolationmode none
attr recordingmode vector(packetBytes)
attr source packetSent
attr title "packets sent, packetBytes"
vector 140 ResourceNetwork.mdMobilePhone.udp packetReceived:vector(packetBytes) ETV
attr interpolationmode none
attr recordingmode vector(packetBytes)
attr source packetReceived
attr title "packets received, packetBytes"
vector 141 ResourceNetwork.mdMobilePhone.udp passedUpPk:vector(count) ETV
attr interpolationmode none
attr recordingmode vector(count)
attr source packetSentToUpper
attr title "packets passed up, count"
vector 142 ResourceNetwork.mdMobilePhone.udp droppedPkWrongPort:vector(count) ETV
attr interpolationmode none
attr recordingmode vector(count)
attr source packetDropReasonIsNoPortFound(packetDropped)
attr title "packets dropped (wrong port), count"
vector 143 ResourceNetwork.mdMobilePhone.udp droppedPkBadChecksum:vector(count) ETV
attr interpolationmode none
attr recordingmode vector(count)
attr source packetDropReasonIsIncorrectlyReceived(packetDropped)
attr title "packets dropped (checksum error), count"
vector 144 ResourceNetwork.mdAutonomousVehicle[0].lo[0].lo rcvdPkFromHl:vector(packetBytes) ETV
attr interpolationmode none
attr recordingmode vector(packetBytes)
attr source packetReceivedFromUpper
attr title "packets received from higher layer, packetBytes"
vector 145 ResourceNetwork.mdAutonomousVehicle[0].lo[0].lo passedUpPk:vector(packetBytes) ETV
attr interpolationmode none
attr recordingmode vector(packetBytes)
attr source packetSentToUpper
attr title "packets passed to higher layer, packetBytes"
vector 146 ResourceNetwork.mdAutonomousVehicle[0].lo[0] packetDropInterfaceDown:vector(packetBytes) ETV
attr interpolationmode none
attr recordingmode vector(packetBytes)
attr source packetDropReasonIsInterfaceDown(packetDropped)
attr title "packet drops: interface down, packetBytes"
vector 147 ResourceNetwork.mdAutonomousVehicle[0].lo[0] packetDropNoCarrier:vector(packetBytes) ETV
attr interpolationmode none
attr recordingmode vector(packetBytes)
attr source packetDropReasonIsNoCarrier(packetDropped)
attr title "packet drops: no carrier, packetBytes"
vector 148 ResourceNetwork.mdAutonomousVehicle[0].wlan[0].queue queueLength:vector ETV
attr autoWarmupFilter false
attr interpolationmode sample-hold
attr recordingmode vector
attr source "warmup(atomic(constant0(packetPushEnded) + count(packetPushStarted) - count(packetPulled) - count(packetRemoved) - count(packetDropped)))"
attr title "queue length"
attr unit pk
vector 149 ResourceNetwork.mdAutonomousVehicle[0].wlan[0].queue queueBitLength:vector ETV
attr autoWarmupFilter false
attr interpolationmode sample-hold
attr recordingmode vector
attr source "warmup(atomic(constant0(packetPushEnded) + sum(packetLength(packetPushStarted)) - sum(packetLength(packetPulled)) - sum(packetLength(packetRemoved)) - sum(packetLength(packetDropped))))"
attr title "queue bit length"
attr unit b
vector 150 ResourceNetwork.mdAutonomousVehicle[0].wlan[0].queue queueingTime:vector ETV
attr interpolationmode none
attr recordingmode vector
attr source queueingTime(packetPulled)
attr title "queueing times"
attr unit s
vector 151 ResourceNetwork.mdAutonomousVehicle[0].wlan[0].queue incomingPacketLengths:vector ETV
attr interpolationmode none
attr recordingmode vector
attr source packetLength(packetPushStarted)
attr title "incoming packet lengths"
attr unit b
vector 152 ResourceNetwork.mdAutonomousVehicle[0].wlan[0].queue incomingDataRate:vector ETV
attr interpolationmode linear
attr recordingmode vector
attr source throughput(packetPushStarted)
attr title "incoming datarate"
attr unit bps
vector 153 ResourceNetwork.mdAutonomousVehicle[0].wlan[0].queue outgoingPacketLengths:vector ETV
attr interpolationmode none
attr recordingmode vector
attr source packetLength(packetPulled)
attr title "outgoing packet lengths"
attr unit b
vector 154 ResourceNetwork.mdAutonomousVehicle[0].wlan[0].queue outgoingDataRate:vector ETV
attr interpolationmode linear
attr recordingmode vector
attr source throughput(packetPulled)
attr title "outgoing datarate"
attr unit bps
vector 155 ResourceNetwork.mdAutonomousVehicle[0].wlan[0].queue droppedPacketLengthsQueueOverflow:vector ETV
attr interpolationmode none
attr recordingmode vector
attr source packetLength(packetDropReasonIsQueueOverflow(packetDropped))
attr title "dropped packet lengths: queue overflow"
attr unit b
vector 156 ResourceNetwork.mdAutonomousVehicle[0].wlan[0].queue flowQueueingTime:vector ETV
attr interpolationmode none
attr recordingmode vector
attr source queueingTime(demuxFlow(packetPulled))
attr title "flow queueing times"
attr unit s
vector 157 ResourceNetwork.mdAutonomousVehicle[0].wlan[0].queue flowIncomingDataRate:vector ETV
attr interpolationmode linear
attr recordingmode vector
attr source throughput(flowPacketLength(demuxFlow(packetPushStarted)))
attr title "flow specific incoming data rate"
attr unit bps
vector 158 ResourceNetwork.mdAutonomousVehicle[0].wlan[0].queue flowOutgoingDataRate:vector ETV
attr interpolationmode linear
attr recordingmode vector
attr source throughput(flowPacketLength(demuxFlow(packetPulled)))
attr title "flow specific outgoing data rate"
attr unit bps
vector 159 ResourceNetwork.mdAutonomousVehicle[0].wlan[0].mac passedUpPk:vector(packetBytes) ETV
attr interpolationmode none
attr recordingmode vector(packetBytes)
attr source packetSentToUpper
attr title "packets passed to higher layer, packetBytes"
vector 160 ResourceNetwork.mdAutonomousVehicle[0].wlan[0].mac sentDownPk:vector(packetBytes) ETV
attr interpolationmode none
attr recordingmode vector(packetBytes)
attr source packetSentToLower
attr title "packets sent to lower layer, packetBytes"
vector 161 ResourceNetwork.mdAutonomousVehicle[0].wlan[0].mac rcvdPkFromHl:vector(packetBytes) ETV
attr interpolationmode none
attr recordingmode vector(packetBytes)
attr source packetReceivedFromUpper
attr title "packets received from higher layer, packetBytes"
vector 162 ResourceNetwork.mdAutonomousVehicle[0].wlan[0].mac rcvdPkFromLl:vector(packetBytes) ETV
attr interpolationmode none
attr recordingmode vector(packetBytes)
attr source packetReceivedFromLower
attr title "packets received from lower layer, packetBytes"
vector 163 ResourceNetwork.mdAutonomousVehicle[0].wlan[0].mac packetDropIncorrectlyReceived:vector(packetBytes) ETV
attr interpolationmode none
attr recordingmode vector(packetBytes)
attr source packetDropReasonIsIncorrectlyReceived(packetDropped)
attr title "packet drop: incorrectly received, packetBytes"
vector 164 ResourceNetwork.mdAutonomousVehicle[0].wlan[0].mac packetDropInterfaceDown:vector(packetBytes) ETV
attr interpolationmode none
attr recordingmode vector(packetBytes)
attr source packetDropReasonIsInterfaceDown(packetDropped)
attr title "packet drop: interface down, packetBytes"
vector 165 ResourceNetwork.mdAutonomousVehicle[0].wlan[0].mac packetDropNotAddressedToUs:vector(packetBytes) ETV
attr interpolationmode none
attr recordingmode vector(packetBytes)
attr source packetDropReasonIsNotAddressedToUs(packetDropped)
attr title "packet drop: not addressed to us, packetBytes"
vector 166 ResourceNetwork.mdAutonomousVehicle[0].wlan[0].radio radioMode:vector ETV
attr interpolationmode sample-hold
attr recordingmode vector
attr source radioModeChanged
attr title "Radio mode"
vector 167 ResourceNetwork.mdAutonomousVehicle[0].wlan[0].radio receptionState:vector ETV
attr interpolationmode sample-hold
attr recordingmode vector
attr source receptionStateChanged
attr title "Radio reception state"
vector 168 ResourceNetwork.mdAutonomousVehicle[0].wlan[0].radio transmissionState:vector ETV
attr interpolationmode sample-hold
attr recordingmode vector
attr source transmissionStateChanged
attr title "Radio transmission state"
vector 169 ResourceNetwork.mdAutonomousVehicle[0].wlan[0].radio packetDropped:vector(packetBytes) ETV
attr interpolationmode none
attr recordingmode vector(packetBytes)
attr title "packets dropped, packetBytes"
vector 170 ResourceNetwork.mdAutonomousVehicle[0].wlan[0] packetDropInterfaceDown:vector(packetBytes) ETV
attr interpolationmode none
attr recordingmode vector(packetBytes)
attr source packetDropReasonIsInterfaceDown(packetDropped)
attr title "packet drops: interface down, packetBytes"
vector 171 ResourceNetwork.mdAutonomousVehicle[0].wlan[0] packetDropNoCarrier:vector(packetBytes) ETV
attr interpolationmode none
attr recordingmode vector(packetBytes)
attr source packetDropReasonIsNoCarrier(packetDropped)
attr title "packet drops: no carrier, packetBytes"
vector 172 ResourceNetwork.mdAutonomousVehicle[0].ipv4.ip packetDropAddressResolutionFailed:vector(packetBytes) ETV
attr interpolationmode none
attr recordingmode vector(packetBytes)
attr source packetDropReasonIsAddressResolutionFailed(packetDropped)
attr title "packet drop: address resolution failed, packetBytes"
vector 173 ResourceNetwork.mdAutonomousVehicle[0].ipv4.ip packetDropHopLimitReached:vector(packetBytes) ETV
attr interpolationmode none
attr recordingmode vector(packetBytes)
attr source packetDropReasonIsHopLimitReached(packetDropped)
attr title "packet drop: hop limit reached, packetBytes"
vector 174 ResourceNetwork.mdAutonomousVehicle[0].ipv4.ip packetDropForwardingDisabled:vector(packetBytes) ETV
attr interpolationmode none
attr recordingmode vector(packetBytes)
attr source packetDropReasonIsForwardingDisabled(packetDropped)
attr title "packet drop: forwarding disabled, packetBytes"
vector 175 ResourceNetwork.mdAutonomousVehicle[0].ipv4.ip packetDropNoInterfaceFound:vector(packetBytes) ETV
attr interpolationmode none
attr recordingmode vector(packetBytes)
attr source packetDropReasonIsNoInterfaceFound(packetDropped)
attr title "packet drop: no interface found, packetBytes"
vector 176 ResourceNetwork.mdAutonomousVehicle[0].ipv4.ip packetDropNoRouteFound:vector(packetBytes) ETV
attr interpolationmode none
attr recordingmode vector(packetBytes)
attr source packetDropReasonIsNoRouteFound(packetDropped)
attr title "packet drop: no route found, packetBytes"
vector 177 ResourceNetwork.mdAutonomousVehicle[0].ipv4.ip packetDropUndefined:vector(packetBytes) ETV
attr interpolationmode none
attr recordingmode vector(packetBytes)
attr source packetDropReasonIsUndefined(packetDropped)
attr title "packet drop: undefined, packetBytes"
vector 178 ResourceNetwork.mdAutonomousVehicle[0].udp packetSent:vector(packetBytes) ETV
attr interpolationmode none
attr recordingmode vector(packetBytes)
attr source packetSent
attr title "packets sent, packetBytes"
vector 179 ResourceNetwork.mdAutonomousVehicle[0].udp packetReceived:vector(packetBytes) ETV
attr interpolationmode none
attr recordingmode vector(packetBytes)
attr source packetReceived
attr title "packets received, packetBytes"
vector 180 ResourceNetwork.mdAutonomousVehicle[0].udp passedUpPk:vector(count) ETV
attr interpolationmode none
attr recordingmode vector(count)
attr source packetSentToUpper
attr title "packets passed up, count"
vector 181 ResourceNetwork.mdAutonomousVehicle[0].udp droppedPkWrongPort:vector(count) ETV
attr interpolationmode none
attr recordingmode vector(count)
attr source packetDropReasonIsNoPortFound(packetDropped)
attr title "packets dropped (wrong port), count"
vector 182 ResourceNetwork.mdAutonomousVehicle[0].udp droppedPkBadChecksum:vector(count) ETV
attr interpolationmode none
attr recordingmode vector(count)
attr source packetDropReasonIsIncorrectlyReceived(packetDropped)
attr title "packets dropped (checksum error), count"
vector 183 ResourceNetwork.mdAutonomousVehicle[0].app[0] packetReceived:vector(packetBytes) ETV
attr interpolationmode none
attr recordingmode vector(packetBytes)
attr source packetReceived
attr title "packets received, packetBytes"
vector 184 ResourceNetwork.mdAutonomousVehicle[0].app[0] throughput:vector ETV
attr recordingmode vector
attr source throughput(packetReceived)
attr title throughput
attr unit bps
vector 185 ResourceNetwork.mdAutonomousVehicle[0].app[0] packetSent:vector(packetBytes) ETV
attr interpolationmode none
attr recordingmode vector(packetBytes)
attr source packetSent
attr title "packets sent, packetBytes"
vector 186 ResourceNetwork.mdAutonomousVehicle[0].app[0] rcvdPkLifetime:vector ETV
attr interpolationmode none
attr recordingmode vector
attr source dataAge(packetReceived)
attr title "received packet lifetime"
attr unit s
vector 187 ResourceNetwork.mdAutonomousVehicle[0].app[0] rcvdPkSeqNo:vector ETV
attr interpolationmode none
attr recordingmode vector
attr source appPkSeqNo(packetReceived)
attr title "received packet sequence number"
vector 188 ResourceNetwork.baseStation.ethernet encapPk:vector(packetBytes) ETV
attr interpolationmode none
attr recordingmode vector(packetBytes)
attr source encapPk
attr title "packets encapsulated, packetBytes"
vector 189 ResourceNetwork.baseStation.ethernet decapPk:vector(packetBytes) ETV
attr interpolationmode none
attr recordingmode vector(packetBytes)
attr source decapPk
attr title "packets decapsulated, packetBytes"
vector 190 ResourceNetwork.baseStation.ethernet pauseSent:vector ETV
attr recordingmode vector
attr title "pause sent"
vector 191 ResourceNetwork.baseStation.lo[0].lo rcvdPkFromHl:vector(packetBytes) ETV
attr interpolationmode none
attr recordingmode vector(packetBytes)
attr source packetReceivedFromUpper
attr title "packets received from higher layer, packetBytes"
vector 192 ResourceNetwork.baseStation.lo[0].lo passedUpPk:vector(packetBytes) ETV
attr interpolationmode none
attr recordingmode vector(packetBytes)
attr source packetSentToUpper
attr title "packets passed to higher layer, packetBytes"
vector 193 ResourceNetwork.baseStation.lo[0] packetDropInterfaceDown:vector(packetBytes) ETV
attr interpolationmode none
attr recordingmode vector(packetBytes)
attr source packetDropReasonIsInterfaceDown(packetDropped)
attr title "packet drops: interface down, packetBytes"
vector 194 ResourceNetwork.baseStation.lo[0] packetDropNoCarrier:vector(packetBytes) ETV
attr interpolationmode none
attr recordingmode vector(packetBytes)
attr source packetDropReasonIsNoCarrier(packetDropped)
attr title "packet drops: no carrier, packetBytes"
vector 195 ResourceNetwork.baseStation.wlan[0].queue queueLength:vector ETV
attr autoWarmupFilter false
attr interpolationmode sample-hold
attr recordingmode vector
attr source "warmup(atomic(constant0(packetPushEnded) + count(packetPushStarted) - count(packetPulled) - count(packetRemoved) - count(packetDropped)))"
attr title "queue length"
attr unit pk
vector 196 ResourceNetwork.baseStation.wlan[0].queue queueBitLength:vector ETV
attr autoWarmupFilter false
attr interpolationmode sample-hold
attr recordingmode vector
attr source "warmup(atomic(constant0(packetPushEnded) + sum(packetLength(packetPushStarted)) - sum(packetLength(packetPulled)) - sum(packetLength(packetRemoved)) - sum(packetLength(packetDropped))))"
attr title "queue bit length"
attr unit b
vector 197 ResourceNetwork.baseStation.wlan[0].queue queueingTime:vector ETV
attr interpolationmode none
attr recordingmode vector
attr source queueingTime(packetPulled)
attr title "queueing times"
attr unit s
vector 198 ResourceNetwork.baseStation.wlan[0].queue incomingPacketLengths:vector ETV
attr interpolationmode none
attr recordingmode vector
attr source packetLength(packetPushStarted)
attr title "incoming packet lengths"
attr unit b
vector 199 ResourceNetwork.baseStation.wlan[0].queue incomingDataRate:vector ETV
attr interpolationmode linear
attr recordingmode vector
attr source throughput(packetPushStarted)
attr title "incoming datarate"
attr unit bps
vector 200 ResourceNetwork.baseStation.wlan[0].queue outgoingPacketLengths:vector ETV
attr interpolationmode none
attr recordingmode vector
attr source packetLength(packetPulled)
attr title "outgoing packet lengths"
attr unit b
vector 201 ResourceNetwork.baseStation.wlan[0].queue outgoingDataRate:vector ETV
attr interpolationmode linear
attr recordingmode vector
attr source throughput(packetPulled)
attr title "outgoing datarate"
attr unit bps
vector 202 ResourceNetwork.baseStation.wlan[0].queue droppedPacketLengthsQueueOverflow:vector ETV
attr interpolationmode none
attr recordingmode vector
attr source packetLength(packetDropReasonIsQueueOverflow(packetDropped))
attr title "dropped packet lengths: queue overflow"
attr unit b
vector 203 ResourceNetwork.baseStation.wlan[0].queue flowQueueingTime:vector ETV
attr interpolationmode none
attr recordingmode vector
attr source queueingTime(demuxFlow(packetPulled))
attr title "flow queueing times"
attr unit s
vector 204 ResourceNetwork.baseStation.wlan[0].queue flowIncomingDataRate:vector ETV
attr interpolationmode linear
attr recordingmode vector
attr source throughput(flowPacketLength(demuxFlow(packetPushStarted)))
attr title "flow specific incoming data rate"
attr unit bps
vector 205 ResourceNetwork.baseStation.wlan[0].queue flowOutgoingDataRate:vector ETV
attr interpolationmode linear
attr recordingmode vector
attr source throughput(flowPacketLength(demuxFlow(packetPulled)))
attr title "flow specific outgoing data rate"
attr unit bps
vector 206 ResourceNetwork.baseStation.wlan[0].mac passedUpPk:vector(packetBytes) ETV
attr interpolationmode none
attr recordingmode vector(packetBytes)
attr source packetSentToUpper
attr title "packets passed to higher layer, packetBytes"
vector 207 ResourceNetwork.baseStation.wlan[0].mac sentDownPk:vector(packetBytes) ETV
attr interpolationmode none
attr recordingmode vector(packetBytes)
attr source packetSentToLower
attr title "packets sent to lower layer, packetBytes"
vector 208 ResourceNetwork.baseStation.wlan[0].mac rcvdPkFromHl:vector(packetBytes) ETV
attr interpolationmode none
attr recordingmode vector(packetBytes)
attr source packetReceivedFromUpper
attr title "packets received from higher layer, packetBytes"
vector 209 ResourceNetwork.baseStation.wlan[0].mac rcvdPkFromLl:vector(packetBytes) ETV
attr interpolationmode none
attr recordingmode vector(packetBytes)
attr source packetReceivedFromLower
attr title "packets received from lower layer, packetBytes"
vector 210 ResourceNetwork.baseStation.wlan[0].mac packetDropIncorrectlyReceived:vector(packetBytes) ETV
attr interpolationmode none
attr recordingmode vector(packetBytes)
attr source packetDropReasonIsIncorrectlyReceived(packetDropped)
attr title "packet drop: incorrectly received, packetBytes"
vector 211 ResourceNetwork.baseStation.wlan[0].mac packetDropInterfaceDown:vector(packetBytes) ETV
attr interpolationmode none
attr recordingmode vector(packetBytes)
attr source packetDropReasonIsInterfaceDown(packetDropped)
attr title "packet drop: interface down, packetBytes"
vector 212 ResourceNetwork.baseStation.wlan[0].mac packetDropNotAddressedToUs:vector(packetBytes) ETV
attr interpolationmode none
attr recordingmode vector(packetBytes)
attr source packetDropReasonIsNotAddressedToUs(packetDropped)
attr title "packet drop: not addressed to us, packetBytes"
vector 213 ResourceNetwork.baseStation.wlan[0].radio radioMode:vector ETV
attr interpolationmode sample-hold
attr recordingmode vector
attr source radioModeChanged
attr title "Radio mode"
vector 214 ResourceNetwork.baseStation.wlan[0].radio receptionState:vector ETV
attr interpolationmode sample-hold
attr recordingmode vector
attr source receptionStateChanged
attr title "Radio reception state"
vector 215 ResourceNetwork.baseStation.wlan[0].radio transmissionState:vector ETV
attr interpolationmode sample-hold
attr recordingmode vector
attr source transmissionStateChanged
attr title "Radio transmission state"
vector 216 ResourceNetwork.baseStation.wlan[0].radio packetDropped:vector(packetBytes) ETV
attr interpolationmode none
attr recordingmode vector(packetBytes)
attr title "packets dropped, packetBytes"
vector 217 ResourceNetwork.baseStation.wlan[0] packetDropInterfaceDown:vector(packetBytes) ETV
attr interpolationmode none
attr recordingmode vector(packetBytes)
attr source packetDropReasonIsInterfaceDown(packetDropped)
attr title "packet drops: interface down, packetBytes"
vector 218 ResourceNetwork.baseStation.wlan[0] packetDropNoCarrier:vector(packetBytes) ETV
attr interpolationmode none
attr recordingmode vector(packetBytes)
attr source packetDropReasonIsNoCarrier(packetDropped)
attr title "packet drops: no carrier, packetBytes"
vector 219 ResourceNetwork.baseStation.eth[0].queue queueLength:vector ETV
attr autoWarmupFilter false
attr interpolationmode sample-hold
attr recordingmode vector
attr source "warmup(atomic(constant0(packetPushEnded) + count(packetPushStarted) - count(packetPulled) - count(packetRemoved) - count(packetDropped)))"
attr title "queue length"
attr unit pk
vector 220 ResourceNetwork.baseStation.eth[0].queue queueBitLength:vector ETV
attr autoWarmupFilter false
attr interpolationmode sample-hold
attr recordingmode vector
attr source "warmup(atomic(constant0(packetPushEnded) + sum(packetLength(packetPushStarted)) - sum(packetLength(packetPulled)) - sum(packetLength(packetRemoved)) - sum(packetLength(packetDropped))))"
attr title "queue bit length"
attr unit b
vector 221 ResourceNetwork.baseStation.eth[0].queue queueingTime:vector ETV
attr interpolationmode none
attr recordingmode vector
attr source queueingTime(packetPulled)
attr title "queueing times"
attr unit s
vector 222 ResourceNetwork.baseStation.eth[0].queue incomingPacketLengths:vector ETV
attr interpolationmode none
attr recordingmode vector
attr source packetLength(packetPushStarted)
attr title "incoming packet lengths"
attr unit b
vector 223 ResourceNetwork.baseStation.eth[0].queue incomingDataRate:vector ETV
attr interpolationmode linear
attr recordingmode vector
attr source throughput(packetPushStarted)
attr title "incoming datarate"
attr unit bps
vector 224 ResourceNetwork.baseStation.eth[0].queue outgoingPacketLengths:vector ETV
attr interpolationmode none
attr recordingmode vector
attr source packetLength(packetPulled)
attr title "outgoing packet lengths"
attr unit b
vector 225 ResourceNetwork.baseStation.eth[0].queue outgoingDataRate:vector ETV
attr interpolationmode linear
attr recordingmode vector
attr source throughput(packetPulled)
attr title "outgoing datarate"
attr unit bps
vector 226 ResourceNetwork.baseStation.eth[0].queue droppedPacketLengthsQueueOverflow:vector ETV
attr interpolationmode none
attr recordingmode vector
attr source packetLength(packetDropReasonIsQueueOverflow(packetDropped))
attr title "dropped packet lengths: queue overflow"
attr unit b
vector 227 ResourceNetwork.baseStation.eth[0].queue flowQueueingTime:vector ETV
attr interpolationmode none
attr recordingmode vector
attr source queueingTime(demuxFlow(packetPulled))
attr title "flow queueing times"
attr unit s
vector 228 ResourceNetwork.baseStation.eth[0].queue flowIncomingDataRate:vector ETV
attr interpolationmode linear
attr recordingmode vector
attr source throughput(flowPacketLength(demuxFlow(packetPushStarted)))
attr title "flow specific incoming data rate"
attr unit bps
vector 229 ResourceNetwork.baseStation.eth[0].queue flowOutgoingDataRate:vector ETV
attr interpolationmode linear
attr recordingmode vector
attr source throughput(flowPacketLength(demuxFlow(packetPulled)))
attr title "flow specific outgoing data rate"
attr unit bps
vector 230 ResourceNetwork.baseStation.eth[0].mac txPk:vector(packetBytes) ETV
attr interpolationmode none
attr recordingmode vector(packetBytes)
attr source packetSentToLower
attr title "packets transmitted, packetBytes"
vector 231 ResourceNetwork.baseStation.eth[0].mac rxPkOk:vector(packetBytes) ETV
attr interpolationmode none
attr recordingmode vector(packetBytes)
attr source rxPkOk
attr title "packets received OK, packetBytes"
vector 232 ResourceNetwork.baseStation.eth[0].mac passedUpPk:vector(packetBytes) ETV
attr interpolationmode none
attr recordingmode vector(packetBytes)
attr source packetSentToUpper
attr title "packets passed to higher layer, packetBytes"
vector 233 ResourceNetwork.baseStation.eth[0].mac txPausePkUnits:vector ETV
attr interpolationmode none
attr recordingmode vector
attr title "pause units sent"
vector 234 ResourceNetwork.baseStation.eth[0].mac rxPausePkUnits:vector ETV
attr interpolationmode none
attr recordingmode vector
attr title "pause units received"
vector 235 ResourceNetwork.baseStation.eth[0].mac packetReceivedFromUpper:vector(packetBytes) ETV
attr interpolationmode none
attr recordingmode vector(packetBytes)
attr source packetReceivedFromUpper
attr title "packet bytes from higher layer, packetBytes"
vector 236 ResourceNetwork.baseStation.eth[0].mac packetDropIncorrectlyReceived:vector(packetBytes) ETV
attr interpolationmode none
attr recordingmode vector(packetBytes)
attr source packetDropReasonIsIncorrectlyReceived(packetDropped)
attr title "packet drop: incorrectly received, packetBytes"
vector 237 ResourceNetwork.baseStation.eth[0].mac packetDropInterfaceDown:vector(packetBytes) ETV
attr interpolationmode none
attr recordingmode vector(packetBytes)
attr source packetDropReasonIsInterfaceDown(packetDropped)
attr title "packet drop: interface down, packetBytes"
vector 238 ResourceNetwork.baseStation.eth[0].mac packetDropNotAddressedToUs:vector(packetBytes) ETV
attr interpolationmode none
attr recordingmode vector(packetBytes)
attr source packetDropReasonIsNotAddressedToUs(packetDropped)
attr title "packet drop: not addressed to us, packetBytes"
vector 239 ResourceNetwork.baseStation.eth[0] packetDropInterfaceDown:vector(packetBytes) ETV
attr interpolationmode none
attr recordingmode vector(packetBytes)
attr source packetDropReasonIsInterfaceDown(packetDropped)
attr title "packet drops: interface down, packetBytes"
vector 240 ResourceNetwork.baseStation.eth[0] packetDropNoCarrier:vector(packetBytes) ETV
attr interpolationmode none
attr recordingmode vector(packetBytes)
attr source packetDropReasonIsNoCarrier(packetDropped)
attr title "packet drops: no carrier, packetBytes"
vector 241 ResourceNetwork.baseStation.ipv4.ip packetDropAddressResolutionFailed:vector(packetBytes) ETV
attr interpolationmode none
attr recordingmode vector(packetBytes)
attr source packetDropReasonIsAddressResolutionFailed(packetDropped)
attr title "packet drop: address resolution failed, packetBytes"
vector 242 ResourceNetwork.baseStation.ipv4.ip packetDropHopLimitReached:vector(packetBytes) ETV
attr interpolationmode none
attr recordingmode vector(packetBytes)
attr source packetDropReasonIsHopLimitReached(packetDropped)
attr title "packet drop: hop limit reached, packetBytes"
vector 243 ResourceNetwork.baseStation.ipv4.ip packetDropForwardingDisabled:vector(packetBytes) ETV
attr interpolationmode none
attr recordingmode vector(packetBytes)
attr source packetDropReasonIsForwardingDisabled(packetDropped)
attr title "packet drop: forwarding disabled, packetBytes"
vector 244 ResourceNetwork.baseStation.ipv4.ip packetDropNoInterfaceFound:vector(packetBytes) ETV
attr interpolationmode none
attr recordingmode vector(packetBytes)
attr source packetDropReasonIsNoInterfaceFound(packetDropped)
attr title "packet drop: no interface found, packetBytes"
vector 245 ResourceNetwork.baseStation.ipv4.ip packetDropNoRouteFound:vector(packetBytes) ETV
attr interpolationmode none
attr recordingmode vector(packetBytes)
attr source packetDropReasonIsNoRouteFound(packetDropped)
attr title "packet drop: no route found, packetBytes"
vector 246 ResourceNetwork.baseStation.ipv4.ip packetDropUndefined:vector(packetBytes) ETV
attr interpolationmode none
attr recordingmode vector(packetBytes)
attr source packetDropReasonIsUndefined(packetDropped)
attr title "packet drop: undefined, packetBytes"
vector 247 ResourceNetwork.baseStation.udp packetSent:vector(packetBytes) ETV
attr interpolationmode none
attr recordingmode vector(packetBytes)
attr source packetSent
attr title "packets sent, packetBytes"
vector 248 ResourceNetwork.baseStation.udp packetReceived:vector(packetBytes) ETV
attr interpolationmode none
attr recordingmode vector(packetBytes)
attr source packetReceived
attr title "packets received, packetBytes"
vector 249 ResourceNetwork.baseStation.udp passedUpPk:vector(count) ETV
attr interpolationmode none
attr recordingmode vector(count)
attr source packetSentToUpper
attr title "packets passed up, count"
vector 250 ResourceNetwork.baseStation.udp droppedPkWrongPort:vector(count) ETV
attr interpolationmode none
attr recordingmode vector(count)
attr source packetDropReasonIsNoPortFound(packetDropped)
attr title "packets dropped (wrong port), count"
vector 251 ResourceNetwork.baseStation.udp droppedPkBadChecksum:vector(count) ETV
attr interpolationmode none
attr recordingmode vector(count)
attr source packetDropReasonIsIncorrectlyReceived(packetDropped)
attr title "packets dropped (checksum error), count"
vector 252 ResourceNetwork.coreRouter.ethernet encapPk:vector(packetBytes) ETV
attr interpolationmode none
attr recordingmode vector(packetBytes)
attr source encapPk
attr title "packets encapsulated, packetBytes"
vector 253 ResourceNetwork.coreRouter.ethernet decapPk:vector(packetBytes) ETV
attr interpolationmode none
attr recordingmode vector(packetBytes)
attr source decapPk
attr title "packets decapsulated, packetBytes"
vector 254 ResourceNetwork.coreRouter.ethernet pauseSent:vector ETV
attr recordingmode vector
attr title "pause sent"
vector 255 ResourceNetwork.coreRouter.lo[0].lo rcvdPkFromHl:vector(packetBytes) ETV
attr interpolationmode none
attr recordingmode vector(packetBytes)
attr source packetReceivedFromUpper
attr title "packets received from higher layer, packetBytes"
vector 256 ResourceNetwork.coreRouter.lo[0].lo passedUpPk:vector(packetBytes) ETV
attr interpolationmode none
attr recordingmode vector(packetBytes)
attr source packetSentToUpper
attr title "packets passed to higher layer, packetBytes"
vector 257 ResourceNetwork.coreRouter.lo[0] packetDropInterfaceDown:vector(packetBytes) ETV
attr interpolationmode none
attr recordingmode vector(packetBytes)
attr source packetDropReasonIsInterfaceDown(packetDropped)
attr title "packet drops: interface down, packetBytes"
vector 258 ResourceNetwork.coreRouter.lo[0] packetDropNoCarrier:vector(packetBytes) ETV
attr interpolationmode none
attr recordingmode vector(packetBytes)
attr source packetDropReasonIsNoCarrier(packetDropped)
attr title "packet drops: no carrier, packetBytes"
vector 259 ResourceNetwork.coreRouter.eth[0].queue queueLength:vector ETV
attr autoWarmupFilter false
attr interpolationmode sample-hold
attr recordingmode vector
attr source "warmup(atomic(constant0(packetPushEnded) + count(packetPushStarted) - count(packetPulled) - count(packetRemoved) - count(packetDropped)))"
attr title "queue length"
attr unit pk
vector 260 ResourceNetwork.coreRouter.eth[0].queue queueBitLength:vector ETV
attr autoWarmupFilter false
attr interpolationmode sample-hold
attr recordingmode vector
attr source "warmup(atomic(constant0(packetPushEnded) + sum(packetLength(packetPushStarted)) - sum(packetLength(packetPulled)) - sum(packetLength(packetRemoved)) - sum(packetLength(packetDropped))))"
attr title "queue bit length"
attr unit b
vector 261 ResourceNetwork.coreRouter.eth[0].queue queueingTime:vector ETV
attr interpolationmode none
attr recordingmode vector
attr source queueingTime(packetPulled)
attr title "queueing times"
attr unit s
vector 262 ResourceNetwork.coreRouter.eth[0].queue incomingPacketLengths:vector ETV
attr interpolationmode none
attr recordingmode vector
attr source packetLength(packetPushStarted)
attr title "incoming packet lengths"
attr unit b
vector 263 ResourceNetwork.coreRouter.eth[0].queue incomingDataRate:vector ETV
attr interpolationmode linear
attr recordingmode vector
attr source throughput(packetPushStarted)
attr title "incoming datarate"
attr unit bps
vector 264 ResourceNetwork.coreRouter.eth[0].queue outgoingPacketLengths:vector ETV
attr interpolationmode none
attr recordingmode vector
attr source packetLength(packetPulled)
attr title "outgoing packet lengths"
attr unit b
vector 265 ResourceNetwork.coreRouter.eth[0].queue outgoingDataRate:vector ETV
attr interpolationmode linear
attr recordingmode vector
attr source throughput(packetPulled)
attr title "outgoing datarate"
attr unit bps
vector 266 ResourceNetwork.coreRouter.eth[0].queue droppedPacketLengthsQueueOverflow:vector ETV
attr interpolationmode none
attr recordingmode vector
attr source packetLength(packetDropReasonIsQueueOverflow(packetDropped))
attr title "dropped packet lengths: queue overflow"
attr unit b
vector 267 ResourceNetwork.coreRouter.eth[0].queue flowQueueingTime:vector ETV
attr interpolationmode none
attr recordingmode vector
attr source queueingTime(demuxFlow(packetPulled))
attr title "flow queueing times"
attr unit s
vector 268 ResourceNetwork.coreRouter.eth[0].queue flowIncomingDataRate:vector ETV
attr interpolationmode linear
attr recordingmode vector
attr source throughput(flowPacketLength(demuxFlow(packetPushStarted)))
attr title "flow specific incoming data rate"
attr unit bps
vector 269 ResourceNetwork.coreRouter.eth[0].queue flowOutgoingDataRate:vector ETV
attr interpolationmode linear
attr recordingmode vector
attr source throughput(flowPacketLength(demuxFlow(packetPulled)))
attr title "flow specific outgoing data rate"
attr unit bps
vector 270 ResourceNetwork.coreRouter.eth[0].mac txPk:vector(packetBytes) ETV
attr interpolationmode none
attr recordingmode vector(packetBytes)
attr source packetSentToLower
attr title "packets transmitted, packetBytes"
vector 271 ResourceNetwork.coreRouter.eth[0].mac rxPkOk:vector(packetBytes) ETV
attr interpolationmode none
attr recordingmode vector(packetBytes)
attr source rxPkOk
attr title "packets received OK, packetBytes"
vector 272 ResourceNetwork.coreRouter.eth[0].mac passedUpPk:vector(packetBytes) ETV
attr interpolationmode none
attr recordingmode vector(packetBytes)
attr source packetSentToUpper
attr title "packets passed to higher layer, packetBytes"
vector 273 ResourceNetwork.coreRouter.eth[0].mac txPausePkUnits:vector ETV
attr interpolationmode none
attr recordingmode vector
attr title "pause units sent"
vector 274 ResourceNetwork.coreRouter.eth[0].mac rxPausePkUnits:vector ETV
attr interpolationmode none
attr recordingmode vector
attr title "pause units received"
vector 275 ResourceNetwork.coreRouter.eth[0].mac packetReceivedFromUpper:vector(packetBytes) ETV
attr interpolationmode none
attr recordingmode vector(packetBytes)
attr source packetReceivedFromUpper
attr title "packet bytes from higher layer, packetBytes"
vector 276 ResourceNetwork.coreRouter.eth[0].mac packetDropIncorrectlyReceived:vector(packetBytes) ETV
attr interpolationmode none
attr recordingmode vector(packetBytes)
attr source packetDropReasonIsIncorrectlyReceived(packetDropped)
attr title "packet drop: incorrectly received, packetBytes"
vector 277 ResourceNetwork.coreRouter.eth[0].mac packetDropInterfaceDown:vector(packetBytes) ETV
attr interpolationmode none
attr recordingmode vector(packetBytes)
attr source packetDropReasonIsInterfaceDown(packetDropped)
attr title "packet drop: interface down, packetBytes"
vector 278 ResourceNetwork.coreRouter.eth[0].mac packetDropNotAddressedToUs:vector(packetBytes) ETV
attr interpolationmode none
attr recordingmode vector(packetBytes)
attr source packetDropReasonIsNotAddressedToUs(packetDropped)
attr title "packet drop: not addressed to us, packetBytes"
vector 279 ResourceNetwork.coreRouter.eth[0] packetDropInterfaceDown:vector(packetBytes) ETV
attr interpolationmode none
attr recordingmode vector(packetBytes)
attr source packetDropReasonIsInterfaceDown(packetDropped)
attr title "packet drops: interface down, packetBytes"
vector 280 ResourceNetwork.coreRouter.eth[0] packetDropNoCarrier:vector(packetBytes) ETV
attr interpolationmode none
attr recordingmode vector(packetBytes)
attr source packetDropReasonIsNoCarrier(packetDropped)
attr title "packet drops: no carrier, packetBytes"
vector 281 ResourceNetwork.coreRouter.eth[1].queue queueLength:vector ETV
attr autoWarmupFilter false
attr interpolationmode sample-hold
attr recordingmode vector
attr source "warmup(atomic(constant0(packetPushEnded) + count(packetPushStarted) - count(packetPulled) - count(packetRemoved) - count(packetDropped)))"
attr title "queue length"
attr unit pk
vector 282 ResourceNetwork.coreRouter.eth[1].queue queueBitLength:vector ETV
attr autoWarmupFilter false
attr interpolationmode sample-hold
attr recordingmode vector
attr source "warmup(atomic(constant0(packetPushEnded) + sum(packetLength(packetPushStarted)) - sum(packetLength(packetPulled)) - sum(packetLength(packetRemoved)) - sum(packetLength(packetDropped))))"
attr title "queue bit length"
attr unit b
vector 283 ResourceNetwork.coreRouter.eth[1].queue queueingTime:vector ETV
attr interpolationmode none
attr recordingmode vector
attr source queueingTime(packetPulled)
attr title "queueing times"
attr unit s
vector 284 ResourceNetwork.coreRouter.eth[1].queue incomingPacketLengths:vector ETV
attr interpolationmode none
attr recordingmode vector
attr source packetLength(packetPushStarted)
attr title "incoming packet lengths"
attr unit b
vector 285 ResourceNetwork.coreRouter.eth[1].queue incomingDataRate:vector ETV
attr interpolationmode linear
attr recordingmode vector
attr source throughput(packetPushStarted)
attr title "incoming datarate"
attr unit bps
vector 286 ResourceNetwork.coreRouter.eth[1].queue outgoingPacketLengths:vector ETV
attr interpolationmode none
attr recordingmode vector
attr source packetLength(packetPulled)
attr title "outgoing packet lengths"
attr unit b
vector 287 ResourceNetwork.coreRouter.eth[1].queue outgoingDataRate:vector ETV
attr interpolationmode linear
attr recordingmode vector
attr source throughput(packetPulled)
attr title "outgoing datarate"
attr unit bps
vector 288 ResourceNetwork.coreRouter.eth[1].queue droppedPacketLengthsQueueOverflow:vector ETV
attr interpolationmode none
attr recordingmode vector
attr source packetLength(packetDropReasonIsQueueOverflow(packetDropped))
attr title "dropped packet lengths: queue overflow"
attr unit b
vector 289 ResourceNetwork.coreRouter.eth[1].queue flowQueueingTime:vector ETV
attr interpolationmode none
attr recordingmode vector
attr source queueingTime(demuxFlow(packetPulled))
attr title "flow queueing times"
attr unit s
vector 290 ResourceNetwork.coreRouter.eth[1].queue flowIncomingDataRate:vector ETV
attr interpolationmode linear
attr recordingmode vector
attr source throughput(flowPacketLength(demuxFlow(packetPushStarted)))
attr title "flow specific incoming data rate"
attr unit bps
vector 291 ResourceNetwork.coreRouter.eth[1].queue flowOutgoingDataRate:vector ETV
attr interpolationmode linear
attr recordingmode vector
attr source throughput(flowPacketLength(demuxFlow(packetPulled)))
attr title "flow specific outgoing data rate"
attr unit bps
vector 292 ResourceNetwork.coreRouter.eth[1].mac txPk:vector(packetBytes) ETV
attr interpolationmode none
attr recordingmode vector(packetBytes)
attr source packetSentToLower
attr title "packets transmitted, packetBytes"
vector 293 ResourceNetwork.coreRouter.eth[1].mac rxPkOk:vector(packetBytes) ETV
attr interpolationmode none
attr recordingmode vector(packetBytes)
attr source rxPkOk
attr title "packets received OK, packetBytes"
vector 294 ResourceNetwork.coreRouter.eth[1].mac passedUpPk:vector(packetBytes) ETV
attr interpolationmode none
attr recordingmode vector(packetBytes)
attr source packetSentToUpper
attr title "packets passed to higher layer, packetBytes"
vector 295 ResourceNetwork.coreRouter.eth[1].mac txPausePkUnits:vector ETV
attr interpolationmode none
attr recordingmode vector
attr title "pause units sent"
vector 296 ResourceNetwork.coreRouter.eth[1].mac rxPausePkUnits:vector ETV
attr interpolationmode none
attr recordingmode vector
attr title "pause units received"
vector 297 ResourceNetwork.coreRouter.eth[1].mac packetReceivedFromUpper:vector(packetBytes) ETV
attr interpolationmode none
attr recordingmode vector(packetBytes)
attr source packetReceivedFromUpper
attr title "packet bytes from higher layer, packetBytes"
vector 298 ResourceNetwork.coreRouter.eth[1].mac packetDropIncorrectlyReceived:vector(packetBytes) ETV
attr interpolationmode none
attr recordingmode vector(packetBytes)
attr source packetDropReasonIsIncorrectlyReceived(packetDropped)
attr title "packet drop: incorrectly received, packetBytes"
[...]
attr title "packet drop: not addressed to us, packetBytes"
vector 336 ResourceNetwork.edgeServer.eth[0] packetDropInterfaceDown:vector(packetBytes) ETV
attr interpolationmode none
attr recordingmode vector(packetBytes)
attr source packetDropReasonIsInterfaceDown(packetDropped)
attr title "packet drops: interface down, packetBytes"
vector 337 ResourceNetwork.edgeServer.eth[0] packetDropNoCarrier:vector(packetBytes) ETV
attr interpolationmode none
attr recordingmode vector(packetBytes)
attr source packetDropReasonIsNoCarrier(packetDropped)
attr title "packet drops: no carrier, packetBytes"
vector 338 ResourceNetwork.edgeServer.ipv4.ip packetDropAddressResolutionFailed:vector(packetBytes) ETV
attr interpolationmode none
attr recordingmode vector(packetBytes)
attr source packetDropReasonIsAddressResolutionFailed(packetDropped)
attr title "packet drop: address resolution failed, packetBytes"
vector 339 ResourceNetwork.edgeServer.ipv4.ip packetDropHopLimitReached:vector(packetBytes) ETV
attr interpolationmode none
attr recordingmode vector(packetBytes)
attr source packetDropReasonIsHopLimitReached(packetDropped)
attr title "packet drop: hop limit reached, packetBytes"
vector 340 ResourceNetwork.edgeServer.ipv4.ip packetDropForwardingDisabled:vector(packetBytes) ETV
attr interpolationmode none
attr recordingmode vector(packetBytes)
attr source packetDropReasonIsForwardingDisabled(packetDropped)
attr title "packet drop: forwarding disabled, packetBytes"
vector 341 ResourceNetwork.edgeServer.ipv4.ip packetDropNoInterfaceFound:vector(packetBytes) ETV
attr interpolationmode none
attr recordingmode vector(packetBytes)
attr source packetDropReasonIsNoInterfaceFound(packetDropped)
attr title "packet drop: no interface found, packetBytes"
vector 342 ResourceNetwork.edgeServer.ipv4.ip packetDropNoRouteFound:vector(packetBytes) ETV
attr interpolationmode none
attr recordingmode vector(packetBytes)
attr source packetDropReasonIsNoRouteFound(packetDropped)
attr title "packet drop: no route found, packetBytes"
vector 343 ResourceNetwork.edgeServer.ipv4.ip packetDropUndefined:vector(packetBytes) ETV
attr interpolationmode none
attr recordingmode vector(packetBytes)
attr source packetDropReasonIsUndefined(packetDropped)
attr title "packet drop: undefined, packetBytes"
vector 344 ResourceNetwork.edgeServer.udp packetSent:vector(packetBytes) ETV
attr interpolationmode none
attr recordingmode vector(packetBytes)
attr source packetSent
attr title "packets sent, packetBytes"
vector 345 ResourceNetwork.edgeServer.udp packetReceived:vector(packetBytes) ETV
attr interpolationmode none
attr recordingmode vector(packetBytes)
attr source packetReceived
attr title "packets received, packetBytes"
vector 346 ResourceNetwork.edgeServer.udp passedUpPk:vector(count) ETV
attr interpolationmode none
attr recordingmode vector(count)
attr source packetSentToUpper
attr title "packets passed up, count"
vector 347 ResourceNetwork.edgeServer.udp droppedPkWrongPort:vector(count) ETV
attr interpolationmode none
attr recordingmode vector(count)
attr source packetDropReasonIsNoPortFound(packetDropped)
attr title "packets dropped (wrong port), count"
vector 348 ResourceNetwork.edgeServer.udp droppedPkBadChecksum:vector(count) ETV
attr interpolationmode none
attr recordingmode vector(count)
attr source packetDropReasonIsIncorrectlyReceived(packetDropped)
attr title "packets dropped (checksum error), count"
vector 349 ResourceNetwork latencyOverTime:vector ETV
attr recordingmode vector
attr source latency
vector 350 ResourceNetwork systemResourceUtilisationOverTime:vector ETV
attr recordingmode vector
attr source resourceUtilisation
vector 351 ResourceNetwork energyConsumptionOverTime:vector ETV
attr recordingmode vector
attr source energyConsumption
vector 352 ResourceNetwork tasksProcessedOverTime:vector ETV
attr recordingmode vector
attr source tasksProcessed
vector 353 ResourceNetwork maxQueueLengthOverTime:vector ETV
attr recordingmode vector
attr source maxQueueLength
4	93175 46 175 832 0.089260381577 0.339260381577 2 1 1 2 2
6	93221 23 832 832 0.339260381577 0.339260381577 1 1 1 1 1
7	93244 134 0 1109 0 0.439260381577 9 0 1 2 2
8	93378 138 0 1109 0 0.439260381577 9 0 256 512 131072
9	93516 47 406 1109 0.189260381577 0.439260381577 2 0 0 0 0
10	93563 53 404 1107 0.189260381577 0.439260381577 2 256 256 512 131072
12	93616 53 406 1109 0.189260381577 0.439260381577 2 256 256 512 131072
18	93669 61 412 1115 0.189298381577 0.439298381577 2 3.8e-05 3.8e-05 7.6e-05 2.888e-09
19	93730 116 0 1115 0 0.439298381577 6 0 1 2 2
20	93846 49 404 1107 0.189260381577 0.439260381577 2 1 3 4 10
21	93895 116 0 1108 0 0.439260381577 6 0 1 2 2
22	94011 410 0 1116 0 0.439298381577 18 0 2 8 16
24	94421 10 0 0 0 0 1 31 31 31 961
25	94431 51 412 1115 0.189298381577 0.439298381577 2 32 32 64 2048
27	94482 51 412 1115 0.189298381577 0.439298381577 2 32 32 64 2048
28	94533 51 412 1115 0.189298381577 0.439298381577 2 32 32 64 2048
30	94584 51 412 1115 0.189298381577 0.439298381577 2 32 32 64 2048
41	94635 116 0 1115 0 0.439298381577 6 0 1 2 2
42	94751 63 406 1109 0.189260381577 0.439260381577 2 24000000 24000000 48000000 1.152e+15
45	94814 51 406 1109 0.189260381577 0.439260381577 2 32 32 64 2048
55	94865 125 0 1116 0 0.439298381577 7 0 3 12 30
56	94990 107 0 1116 0 0.439298381577 5 0 1 3 3
57	95097 196 407 1116 0.189260381577 0.439298381577 8 0 2 8 12
58	95293 57 0 835 0 0.339260381577 3 0 0 0 0
69	95350 9 0 0 0 0 1 0 0 0 0
70	95359 9 0 0 0 0 1 0 0 0 0
71	95368 9 0 0 0 0 1 0 0 0 0
76	95377 24 592 592 0.267531900527 0.267531900527 1 1 1 1 1
79	95401 93 0 908 0 0.367531900527 7 0 1 1 1
80	95494 95 0 908 0 0.367531900527 7 0 256 256 65536
81	95589 24 908 908 0.367531900527 0.367531900527 1 0 0 0 0
82	95613 26 906 906 0.367531900527 0.367531900527 1 256 256 256 65536
84	95639 26 908 908 0.367531900527 0.367531900527 1 256 256 256 65536
90	95665 30 914 914 0.367569900527 0.367569900527 1 3.8e-05 3.8e-05 3.8e-05 1.444e-09
91	95695 66 0 914 0 0.367569900527 4 0 1 1 1
92	95761 25 906 906 0.367531900527 0.367531900527 1 13 13 13 169
93	95786 66 0 907 0 0.367531900527 4 0 1 1 1
94	95852 210 0 915 0 0.367569900527 10 0 2 4 8
96	96062 10 0 0 0 0 1 31 31 31 961
97	96072 25 914 914 0.367569900527 0.367569900527 1 32 32 32 1024
99	96097 25 914 914 0.367569900527 0.367569900527 1 32 32 32 1024
100	96122 26 914 914 0.367569900527 0.367569900527 1 32 32 32 1024
102	96148 26 914 914 0.367569900527 0.367569900527 1 32 32 32 1024
113	96174 70 0 914 0 0.367569900527 4 0 1 1 1
114	96244 32 908 908 0.367531900527 0.367531900527 1 24000000 24000000 24000000 5.76e+14
117	96276 26 908 908 0.367531900527 0.367531900527 1 32 32 32 1024
127	96302 80 0 915 0 0.367569900527 5 0 3 7 17
128	96382 60 0 915 0 0.367569900527 3 0 1 2 2
129	96442 100 909 915 0.367531900527 0.367569900527 4 0 2 4 6
130	96542 35 0 595 0 0.267531900527 2 0 0 0 0
141	96577 10 0 0 0 0 1 0 0 0 0
142	96587 10 0 0 0 0 1 0 0 0 0
143	96597 10 0 0 0 0 1 0 0 0 0
148	96607 2574 0 1162 0 0.457050263741 106 0 7 285 1141
149	99181 2913 0 1162 0 0.457050263741 106 0 58912 2398560 80815952896
150	102094 1848 6 1162 0.011724077117 0.457050263741 50 0 0.049420821185 1.07496568459 0.03395424993807
151	103942 1534 6 1161 0.011724077117 0.455920275603 55 8416 8416 462880 3895598080
153	105476 1402 6 1162 0.011724077117 0.457050263741 50 8416 8416 420800 3541452800
160	106878 1402 6 1162 0.011724077117 0.457050263741 50 1075 1075 53750 57781250
161	108280 1402 6 1162 0.011724077117 0.457050263741 50 1052 1052 52600 55335200
166	109682 2511 0 1162 0 0.457050263741 102 0 3 250 650
167	112193 2491 0 1162 0 0.457050263741 100 0 1 50 50
168	114684 4962 6 1163 0.011724077117 0.457050263741 198 0 2 199 299
178	119646 1534 4 1159 0.011724077117 0.455920275603 55 1032 1032 56760 58576320
180	121180 10 0 0 0 0 1 0 0 0 0
181	121190 10 0 0 0 0 1 0 0 0 0
182	121200 10 0 0 0 0 1 0 0 0 0
188	121210 982 19 1168 0.020398830448 0.457051017072 35 1052 1052 36820 38734640
195	122192 50 0 0 0 0 5 0 0 0 0
196	122242 50 0 0 0 0 5 0 0 0 0
206	122292 982 17 1166 0.020398830448 0.457051017072 35 1052 1052 36820 38734640
209	123274 1376 17 1166 0.020398830448 0.457051017072 49 1075 1075 52675 56625625
210	124650 394 43 1147 0.029072830448 0.448377017072 14 1075 1075 15050 16178750
213	125044 30 0 0 0 0 3 0 2 2 4
214	125074 2491 0 1165 0 0.457051017072 100 1 3 246 638
219	127565 927 0 1169 0 0.457051017072 40 0 0 0 0
220	128492 927 0 1169 0 0.457051017072 40 0 0 0 0
221	129419 877 20 1169 0.020398830448 0.457051017072 35 0 0 0 0
222	130296 982 20 1169 0.020398830448 0.457051017072 35 8560 8560 299600 2564576000
224	131278 982 20 1169 0.020398830448 0.457051017072 35 8560 8560 299600 2564576000
230	132260 953 21 1128 0.021261230448 0.440565417072 34 1070 1070 36380 38926600
235	133213 982 20 1169 0.020398830448 0.457051017072 35 1070 1070 37450 40071500
249	134195 10 0 0 0 0 1 0 0 0 0
250	134205 10 0 0 0 0 1 0 0 0 0
251	134215 10 0 0 0 0 1 0 0 0 0
252	134225 953 25 1132 0.021261280448 0.440565467072 34 1052 1052 35768 37627936
253	135178 953 23 1130 0.021261280448 0.440565467072 34 1052 1052 35768 37627936
259	136131 50 0 0 0 0 5 0 0 0 0
260	136181 50 0 0 0 0 5 0 0 0 0
271	136231 953 22 1129 0.021261280448 0.440565467072 34 1070 1070 36380 38926600
272	137184 953 22 1129 0.021261280448 0.440565467072 34 1070 1070 36380 38926600
281	138137 901 0 1133 0 0.440565467072 39 0 0 0 0
282	139038 901 0 1133 0 0.440565467072 39 0 0 0 0
283	139939 851 26 1133 0.021261280448 0.440565467072 34 0 0 0 0
284	140790 953 26 1133 0.021261280448 0.440565467072 34 8560 8560 291040 2491302400
286	141743 953 26 1133 0.021261280448 0.440565467072 34 8560 8560 291040 2491302400
292	142696 953 28 1136 0.022123680448 0.441427867072 34 1070 1070 36380 38926600
297	143649 953 26 1133 0.021261280448 0.440565467072 34 1070 1070 36380 38926600
310	144602 953 30 1138 0.022123730448 0.441427917072 34 1052 1052 35768 37627936
316	145555 50 0 0 0 0 5 0 0 0 0
317	145605 50 0 0 0 0 5 0 0 0 0
328	145655 953 29 1137 0.022123730448 0.441427917072 34 1070 1070 36380 38926600
329	146608 953 29 1137 0.022123730448 0.441427917072 34 1070 1070 36380 38926600
345	147561 954 32 1140 0.022123730448 0.441427917072 34 1032 1032 35088 36210816
346	148515 887 0 1140 0 0.441427917072 35 0 34 595 13685
347	149402 10 0 0 0 0 1 0 0 0 0
348	149412 10 0 0 0 0 1 0 0 0 0
349	149422 447 314 1148 0.146523730448 0.448933476238 12 134.799653331 342.630006857 2814.878238196 714125.41950994
350	149869 1364 33 1148 0.022123730448 0.448933476238 46 0.1244 0.99 40.2868 36.7368712
351	151233 412 314 1148 0.146523730448 0.448933476238 12 1943750000 3050000000 30468750000 7.92146484375e+19
352	151645 307 314 1148 0.146523730448 0.448933476238 12 1 12 78 650
353	151952 1174 33 1148 0.022123730448 0.448933476238 46 0 18 409 5369
4	153126 6181 1468 124734 0.589260381577 59.839260381577 238 1 1 238 238
6	159307 6181 1468 124734 0.589260381577 59.839260381577 238 1 1 238 238
7	165488 12362 1644 124901 0.689260381577 59.939260381577 476 0 1 238 238
8	177850 12838 1644 124901 0.689260381577 59.939260381577 476 0 256 60928 15597568
9	190688 6181 1646 124901 0.689260381577 59.939260381577 238 0 0 0 0
10	196869 6895 1644 124899 0.689260381577 59.939260381577 238 256 256 60928 15597568
11	203764 16049 7460 125031 3.377013501093 60 568 0 33280 614400 2595225600
12	219813 6895 1646 124901 0.689260381577 59.939260381577 238 256 256 60928 15597568
13	226708 16049 7462 125031 3.377013501093 60 568 0 33280 614400 2595225600
18	242757 7847 1652 124907 0.689298381577 59.939298381577 238 3.8e-05 3.8e-05 0.009044 3.43672e-07
19	250604 12838 1646 124907 0.689260381577 59.939298381577 476 0 1 238 238
20	263442 6573 1644 124899 0.689260381577 59.939260381577 238 0 31 3387 68893
21	270015 12838 1644 124900 0.689260381577 59.939260381577 476 0 1 238 238
22	282853 51352 1644 124908 0.689260381577 59.939298381577 1904 0 2 952 1904
25	334205 6657 1652 124907 0.689298381577 59.939298381577 238 32 32 7616 243712
27	340862 6657 1652 124907 0.689298381577 59.939298381577 238 32 32 7616 243712
28	347519 6657 1652 124907 0.689298381577 59.939298381577 238 32 32 7616 243712
30	354176 6657 1652 124907 0.689298381577 59.939298381577 238 32 32 7616 243712
41	360833 12838 1646 124907 0.689260381577 59.939298381577 476 0 1 238 238
42	373671 8085 1646 124901 0.689260381577 59.939260381577 238 24000000 24000000 5712000000 1.37088e+17
45	381756 6657 1646 124901 0.689260381577 59.939260381577 238 32 32 7616 243712
55	388413 12838 1647 124908 0.689260381577 59.939298381577 476 2 3 1190 3094
56	401251 12838 1647 124908 0.689260381577 59.939298381577 476 0 1 238 238
57	414089 25676 1647 124908 0.689260381577 59.939298381577 952 0 2 952 1428
58	439765 6419 1471 124737 0.589260381577 59.839260381577 238 0 0 0 0
76	446184 6417 1328 124547 0.517531900527 59.767531900527 238 1 1 238 238
78	452601 6417 1328 124547 0.517531900527 59.767531900527 238 1 1 238 238
79	459018 12838 1506 124821 0.617531900527 59.867531900527 476 0 1 238 238
80	471856 13314 1506 124821 0.617531900527 59.867531900527 476 0 256 60928 15597568
81	485170 6419 1508 124821 0.617531900527 59.867531900527 238 0 0 0 0
82	491589 6895 1506 124819 0.617531900527 59.867531900527 238 256 256 60928 15597568
83	498484 16048 7953 125031 3.377013501093 60 568 0 33280 611840 2588672000
84	514532 6895 1508 124821 0.617531900527 59.867531900527 238 256 256 60928 15597568
85	521427 16048 7955 125031 3.377013501093 60 568 0 33280 611840 2588672000
90	537475 7847 1514 124827 0.617569900527 59.867569900527 238 3.8e-05 3.8e-05 0.009044 3.43672e-07
91	545322 12838 1508 124827 0.617531900527 59.867569900527 476 0 1 238 238
92	558160 6580 1506 124819 0.617531900527 59.867531900527 238 0 31 3563 72099
93	564740 12838 1506 124820 0.617531900527 59.867531900527 476 0 1 238 238
94	577578 51352 1506 124828 0.617531900527 59.867569900527 1904 0 2 952 1904
97	628930 6657 1514 124827 0.617569900527 59.867569900527 238 32 32 7616 243712
99	635587 6657 1514 124827 0.617569900527 59.867569900527 238 32 32 7616 243712
100	642244 6895 1514 124827 0.617569900527 59.867569900527 238 32 32 7616 243712
102	649139 6895 1514 124827 0.617569900527 59.867569900527 238 32 32 7616 243712
113	656034 13314 1508 124827 0.617531900527 59.867569900527 476 0 1 238 238
114	669348 8323 1508 124821 0.617531900527 59.867531900527 238 24000000 24000000 5712000000 1.37088e+17
117	677671 6895 1508 124821 0.617531900527 59.867531900527 238 32 32 7616 243712
127	684566 13314 1509 124828 0.617531900527 59.867569900527 476 2 3 1190 3094
128	697880 13314 1509 124828 0.617531900527 59.867569900527 476 0 1 238 238
129	711194 26628 1509 124828 0.617531900527 59.867569900527 952 0 2 952 1428
130	737822 6655 1331 124550 0.517531900527 59.767531900527 238 0 0 0 0
148	744477 246480 1185 125015 0.465724263741 59.999074618226 8845 0 11 15179 56575
149	990957 268730 1185 125015 0.465724263741 59.999074618226 8845 0 92576 127746464 4007153843200
150	1259687 190061 1185 125015 0.465724263741 59.999074618226 5072 0 0.090303252125 65.806199209171 2.0401001080616
151	1449748 156396 1287 125014 0.505573992729 59.997525307766 5067 8416 8416 42643872 358890826752
152	1606144 19597 2391 125031 1.011630844775 60 591 -371504.56575309 1514880 422346476.53555 3.3858828525019e+14
153	1625741 156565 1185 125015 0.465724263741 59.999074618226 5072 8416 8416 42685952 359244972032
154	1782306 19554 2422 125031 1.032512900161 60 591 -374960.91542615 1009920 422519830.97067 3.2702407344668e+14
160	1801860 156565 1185 125015 0.465724263741 59.999074618226 5072 1075 1075 5452400 5861330000
161	1958425 156565 1185 125015 0.465724263741 59.999074618226 5072 1052 1052 5335744 5613202688
166	2114990 282697 1185 125015 0.465724263741 59.999074618226 10144 2 3 25360 65936
167	2397687 282697 1185 125015 0.465724263741 59.999074618226 10144 0 1 5072 5072
168	2680384 565394 1185 125016 0.465724263741 59.999074618226 20288 0 2 20288 30432
178	3245778 156396 1285 125012 0.505573992729 59.997525307766 5067 1032 1032 5229144 5396476608
184	3402174 16392 125031 125031 3.377013501093 60 568 0 0 0 0
188	3418566 111222 1197 125021 0.474399017072 59.999075371557 3603 1052 1052 3790356 3987454512
199	3529788 16392 125031 125031 3.377013501093 60 568 0 0 0 0
201	3546180 16392 125031 125031 3.377013501093 60 568 0 0 0 0
206	3562572 111222 1195 125019 0.474399017072 59.999075371557 3603 1052 1052 3790356 3987454512
209	3673794 156533 1189 125019 0.465725017072 59.999075371557 5072 1075 1075 5452400 5861330000
210	3830327 45311 1189 124955 0.465725017072 59.967720027271 1469 1075 1075 1579175 1697613125
214	3875638 282635 1187 125018 0.465725017072 59.999075371557 10144 1 3 24066 62054
219	4158273 100413 1198 125022 0.474399017072 59.999075371557 3603 0 0 0 0
220	4258686 100413 1198 125022 0.474399017072 59.999075371557 3603 0 0 0 0
221	4359099 100413 1198 125022 0.474399017072 59.999075371557 3603 0 0 0 0
222	4459512 111222 1198 125022 0.474399017072 59.999075371557 3603 8560 8560 30841680 264004780800
223	4570734 19338 3378 125031 1.543600209724 60 586 -493823.37395368 1027200 302623671.08212 1.7762678808325e+14
224	4590072 111222 1198 125022 0.474399017072 59.999075371557 3603 8560 8560 30841680 264004780800
225	4701294 19338 3378 125031 1.543600209724 60 586 -493823.37395368 1027200 302623671.08212 1.7762678808325e+14
230	4720632 111252 1170 125023 0.457913417072 59.999937771557 3604 1070 1070 3856280 4126219600
235	4831884 111222 1198 125022 0.474399017072 59.999075371557 3603 1070 1070 3855210 4125074700
252	4943106 111253 1174 125027 0.457913467072 59.999937821557 3604 1052 1052 3791408 3988561216
253	5054359 111252 1172 125025 0.457913467072 59.999937821557 3604 1052 1052 3791408 3988561216
263	5165611 16392 125031 125031 3.377013501093 60 568 0 0 0 0
265	5182003 16392 125031 125031 3.377013501093 60 568 0 0 0 0
271	5198395 111252 1171 125024 0.457913467072 59.999937821557 3604 1070 1070 3856280 4126219600
272	5309647 111252 1171 125024 0.457913467072 59.999937821557 3604 1070 1070 3856280 4126219600
281	5420899 100441 1175 125028 0.457913467072 59.999937821557 3604 0 0 0 0
282	5521340 100441 1175 125028 0.457913467072 59.999937821557 3604 0 0 0 0
283	5621781 100441 1175 125028 0.457913467072 59.999937821557 3604 0 0 0 0
284	5722222 111253 1175 125028 0.457913467072 59.999937821557 3604 8560 8560 30850240 264078054400
285	5833475 19338 3385 125031 1.544462659724 60 586 -494069.19529335 1027200 302632852.94692 1.7763856680158e+14
286	5852813 111253 1175 125028 0.457913467072 59.999937821557 3604 8560 8560 30850240 264078054400
287	5964066 19338 3385 125031 1.544462659724 60 586 -494069.19529335 1027200 302632852.94692 1.7763856680158e+14
292	5983404 111221 1178 125004 0.458775867072 59.992126221557 3603 1070 1070 3855210 4125074700
297	6094625 111253 1175 125028 0.457913467072 59.999937821557 3604 1070 1070 3856280 4126219600
310	6205878 111221 1180 125006 0.458775917072 59.992126271557 3603 1052 1052 3790356 3987454512
320	6317099 16392 125031 125031 3.377013501093 60 568 0 0 0 0
322	6333491 16392 125031 125031 3.377013501093 60 568 0 0 0 0
328	6349883 111221 1179 125005 0.458775917072 59.992126271557 3603 1070 1070 3855210 4125074700
329	6461104 111221 1179 125005 0.458775917072 59.992126271557 3603 1070 1070 3855210 4125074700
345	6572325 111221 1182 125008 0.458775917072 59.992126271557 3603 1032 1032 3718296 3837281472
346	6683546 110191 1182 125008 0.458775917072 59.992126271557 3603 35 3637 6615108 16043066090
349	6793737 87804 1378 124946 0.533509917072 59.964745232768 2137 333.39399557 24737.417025238 26975043.049702 447837867068.22
350	6881541 186815 1183 125009 0.458775917072 59.992126271557 5740 0.8056 1 5301.3832 4910.42899392
351	7068356 78306 1378 124946 0.533509917072 59.964745232768 2137 1875000000 3118750000 5300231250000 1.3424312226563e+22
352	7146662 64410 1378 124946 0.533509917072 59.964745232768 2137 13 2149 2310097 3310480125
353	7211072 172612 1183 125009 0.458775917072 59.992126271557 5740 18 1484 4331639 4282922087

