version 3
run General-0-20260227-12:41:12-12079
attr configname General
attr datetime 20260227-12:41:12
attr datetimef 20260227-124112
attr experiment General
attr inifile omnetpp.ini
attr iterationvars ""
attr iterationvarsd ""
attr iterationvarsf ""
attr measurement ""
attr network ResourceNetwork
attr processid 12079
attr repetition 0
attr replication #0
attr resultdir results
attr runnumber 0
attr seedset 0
config image-path ../../../default_workspace/inet-4.5.4/images
config description "Simple sim where two nodes communicate wirelessly."
config network ResourceNetwork
config sim-time-limit 60s
config *.*.ipv4.arp.typename GlobalArp
config *.mdAutonomousVehicle[*].numApps 1
config *.mdAutonomousVehicle[*].app[0].typename TrafficGenerator
config *.mdAutonomousVehicle[*].app[0].destAddresses "\"edgeServer\""
config *.mdAutonomousVehicle[*].app[0].destPort 5000
config *.mdAutonomousVehicle[*].app[0].messageLength 1024B
config *.mdAutonomousVehicle[*].app[0].sendInterval exponential(12ms)
config *.mdAutonomousVehicle[*].app[0].packetName "\"TaskData\""
config *.mdAutonomousVehicle[*].app[0].minRequiredCPUCycles 300
config *.mdAutonomousVehicle[*].app[0].maxRequiredCPUCycles 500
config *.mdAutonomousVehicle[*].app[0].minDeadlineLatency 0.5
config *.mdAutonomousVehicle[*].app[0].maxDeadlineLatency 20
config *.edgeServer*.numApps 1
config *.edgeServer*.app[0].typename ResourceAllocatorApp
config *.edgeServer*.app[0].localPort 5000
config *.mdAutonomousVehicle[*].wlan[0].typename AckingWirelessInterface
config *.mdAutonomousVehicle[*].wlan[0].mac.useAck false
config *.mdAutonomousVehicle[*].wlan[0].mac.fullDuplex false
config *.mdAutonomousVehicle[*].wlan[0].mac.headerLength 23B
config *.mdAutonomousVehicle[*].wlan[0].radio.typename ApskRadio
config *.mdAutonomousVehicle[*].wlan[0].radio.centerFrequency 2GHz
config *.mdAutonomousVehicle[*].wlan[0].radio.bandwidth 2MHz
config *.mdAutonomousVehicle[*].wlan[0].radio.receiver.bandwidth 2MHz
config *.mdAutonomousVehicle[*].wlan[0].radio.transmitter.power 1.4mW
config *.mdAutonomousVehicle[*].wlan[0].radio.transmitter.preambleDuration 10us
config *.mdAutonomousVehicle[*].wlan[0].radio.transmitter.headerLength 8B
config *.mdAutonomousVehicle[*].wlan[0].radio.receiver.sensitivity -85dBm
config *.mdAutonomousVehicle[*].wlan[0].radio.receiver.energyDetection -85dBm
config *.mdAutonomousVehicle[*].wlan[0].radio.receiver.snirThreshold 4dB
config *.baseStation.forwarding true
config *.baseStation*.wlan[0].typename AckingWirelessInterface
config *.baseStation*.wlan[0].mac.useAck false
config *.baseStation*.wlan[0].mac.fullDuplex false
config *.baseStation*.wlan[0].mac.headerLength 23B
config *.baseStation*.wlan[0].radio.typename ApskRadio
config *.baseStation*.wlan[0].radio.centerFrequency 2GHz
config *.baseStation*.wlan[0].radio.transmitter.power 1.4mW
config *.baseStation*.wlan[0].radio.transmitter.preambleDuration 10us
config *.baseStation*.wlan[0].radio.transmitter.headerLength 8B
config *.baseStation*.wlan[0].radio.receiver.sensitivity -85dBm
config *.baseStation*.wlan[0].radio.receiver.energyDetection -85dBm
config *.baseStation*.wlan[0].radio.receiver.snirThreshold 4dB
config **.wlan[0].radio.bandwidth 2MHz
config **.wlan[0].radio.receiver.bandwidth 2MHz
config *.baseStation*.wlan[0].bitrate 1Mbps
config *.mdAutonomousVehicle*.wlan[0].bitrate 1Mbps
config *.radioMedium.backgroundNoise.power -90dBm
config *.radioMedium.backgroundNoise.centerFrequency 2GHz
config *.radioMedium.backgroundNoise.bandwidth 2MHz
config *.radioMedium.mediumLimitCache.centerFrequency 2GHz
config *.radioMedium.mediumLimitCache.bandwidth 2MHz
config *.radioMedium.mediumLimitCache.minRelativePower -110dB
config *.radioMedium.**ignorePartialInterference true
config *.radioMedium.macAddressFilter true
config **.radio.displayCommunicationRange true
config *.visualizer.mediumVisualizer.displaySignals true
config *.visualizer.physicalLinkVisualizer.displayLinks true
config *.visualizer.physicalLinkVisualizer.packetFilter "\"TaskData\""
config *.visualizer.mobilityVisualizer.displayVelocities true
config *.visualizer.mobilityVisualizer.displayMovementTrails true
config *.hostA.mobility.typename LinearMobility
config *.hostA.mobility.speed 12mps
config *.hostA.mobility.initialMovementHeading 200deg

par ResourceNetwork.baseStation.ethg$o[0].channel typename "\"inet.node.ethernet.Eth10M\""
par ResourceNetwork.baseStation.ethg$o[0].channel disabled false
attr mutable ""
par ResourceNetwork.baseStation.ethg$o[0].channel delay 5e-08s
attr mutable ""
attr unit s
par ResourceNetwork.baseStation.ethg$o[0].channel datarate 1e+07bps
attr mutable ""
attr unit bps
par ResourceNetwork.baseStation.ethg$o[0].channel ber 0
attr mutable ""
par ResourceNetwork.baseStation.ethg$o[0].channel per 0
attr mutable ""
par ResourceNetwork.baseStation.ethg$o[0].channel length 10m
attr unit m
par ResourceNetwork.coreRouter.ethg$o[0].channel typename "\"inet.node.ethernet.Eth10M\""
par ResourceNetwork.coreRouter.ethg$o[0].channel disabled false
attr mutable ""
par ResourceNetwork.coreRouter.ethg$o[0].channel delay 5e-08s
attr mutable ""
attr unit s
par ResourceNetwork.coreRouter.ethg$o[0].channel datarate 1e+07bps
attr mutable ""
attr unit bps
par ResourceNetwork.coreRouter.ethg$o[0].channel ber 0
attr mutable ""
par ResourceNetwork.coreRouter.ethg$o[0].channel per 0
attr mutable ""
par ResourceNetwork.coreRouter.ethg$o[0].channel length 10m
attr unit m
par ResourceNetwork.coreRouter.ethg$o[1].channel typename "\"inet.node.ethernet.Eth10M\""
par ResourceNetwork.coreRouter.ethg$o[1].channel disabled false
attr mutable ""
par ResourceNetwork.coreRouter.ethg$o[1].channel delay 5e-08s
attr mutable ""
attr unit s
par ResourceNetwork.coreRouter.ethg$o[1].channel datarate 1e+07bps
attr mutable ""
attr unit bps
par ResourceNetwork.coreRouter.ethg$o[1].channel ber 0
attr mutable ""
par ResourceNetwork.coreRouter.ethg$o[1].channel per 0
attr mutable ""
par ResourceNetwork.coreRouter.ethg$o[1].channel length 10m
attr unit m
par ResourceNetwork.edgeServer.ethg$o[0].channel typename "\"inet.node.ethernet.Eth10M\""
par ResourceNetwork.edgeServer.ethg$o[0].channel disabled false
attr mutable ""
par ResourceNetwork.edgeServer.ethg$o[0].channel delay 5e-08s
attr mutable ""
attr unit s
par ResourceNetwork.edgeServer.ethg$o[0].channel datarate 1e+07bps
attr mutable ""
attr unit bps
par ResourceNetwork.edgeServer.ethg$o[0].channel ber 0
attr mutable ""
par ResourceNetwork.edgeServer.ethg$o[0].channel per 0
attr mutable ""
par ResourceNetwork.edgeServer.ethg$o[0].channel length 10m
attr unit m
par ResourceNetwork.visualizer.sceneVisualizer typename "\"inet.visualizer.canvas.scene.SceneCanvasVisualizer\""
par ResourceNetwork.visualizer.sceneVisualizer visualizationTargetModule "\"^.^\""
par ResourceNetwork.visualizer.sceneVisualizer visualizationSubjectModule "\"^.^\""
par ResourceNetwork.visualizer.sceneVisualizer tags "\"\""
par ResourceNetwork.visualizer.sceneVisualizer physicalEnvironmentModule "\"physicalEnvironment\""
par ResourceNetwork.visualizer.sceneVisualizer networkNodeVisualizerModule "\"^.networkNodeVisualizer\""
par ResourceNetwork.visualizer.sceneVisualizer axisLength "nan m"
attr mutable ""
attr unit m
par ResourceNetwork.visualizer.sceneVisualizer animationSpeed 0
par ResourceNetwork.visualizer.sceneVisualizer sceneMinX "nan m"
attr unit m
par ResourceNetwork.visualizer.sceneVisualizer sceneMinY "nan m"
attr unit m
par ResourceNetwork.visualizer.sceneVisualizer sceneMinZ "nan m"
attr unit m
par ResourceNetwork.visualizer.sceneVisualizer sceneMaxX "nan m"
attr unit m
par ResourceNetwork.visualizer.sceneVisualizer sceneMaxY "nan m"
attr unit m
par ResourceNetwork.visualizer.sceneVisualizer sceneMaxZ "nan m"
attr unit m
par ResourceNetwork.visualizer.sceneVisualizer zIndex 0
par ResourceNetwork.visualizer.sceneVisualizer viewAngle "\"x right y down z out\""
attr mutable ""
par ResourceNetwork.visualizer.sceneVisualizer viewScale "\"1 1\""
attr mutable ""
par ResourceNetwork.visualizer.sceneVisualizer viewTranslation "\"0 0\""
attr mutable ""
par ResourceNetwork.visualizer.sceneVisualizer descriptionFigure "\"\""
par ResourceNetwork.visualizer.physicalEnvironmentVisualizer typename "\"inet.visualizer.canvas.environment.PhysicalEnvironmentCanvasVisualizer\""
par ResourceNetwork.visualizer.physicalEnvironmentVisualizer visualizationTargetModule "\"^.^\""
par ResourceNetwork.visualizer.physicalEnvironmentVisualizer visualizationSubjectModule "\"^.^\""
par ResourceNetwork.visualizer.physicalEnvironmentVisualizer tags "\"\""
par ResourceNetwork.visualizer.physicalEnvironmentVisualizer physicalEnvironmentModule "\"physicalEnvironment\""
par ResourceNetwork.visualizer.physicalEnvironmentVisualizer displayObjects true
par ResourceNetwork.visualizer.physicalEnvironmentVisualizer zIndex 0
par ResourceNetwork.visualizer.networkNodeVisualizer typename "\"inet.visualizer.canvas.scene.NetworkNodeCanvasVisualizer\""
par ResourceNetwork.visualizer.networkNodeVisualizer visualizationTargetModule "\"^.^\""
par ResourceNetwork.visualizer.networkNodeVisualizer visualizationSubjectModule "\"^.^\""
par ResourceNetwork.visualizer.networkNodeVisualizer tags "\"\""
par ResourceNetwork.visualizer.networkNodeVisualizer nodeFilter "\"*\""
attr mutable ""
par ResourceNetwork.visualizer.networkNodeVisualizer annotationSpacing 4
par ResourceNetwork.visualizer.networkNodeVisualizer placementPenalty 10
par ResourceNetwork.visualizer.networkNodeVisualizer zIndex 0
par ResourceNetwork.visualizer.networkConnectionVisualizer typename "\"inet.visualizer.canvas.scene.NetworkConnectionCanvasVisualizer\""
par ResourceNetwork.visualizer.networkConnectionVisualizer visualizationTargetModule "\"^.^\""
par ResourceNetwork.visualizer.networkConnectionVisualizer visualizationSubjectModule "\"^.^\""
par ResourceNetwork.visualizer.networkConnectionVisualizer tags "\"\""
par ResourceNetwork.visualizer.networkConnectionVisualizer displayNetworkConnections true
par ResourceNetwork.visualizer.networkConnectionVisualizer nodeFilter "\"\""
attr mutable ""
par ResourceNetwork.visualizer.networkConnectionVisualizer lineColor "\"black\""
par ResourceNetwork.visualizer.networkConnectionVisualizer lineStyle "\"solid\""
par ResourceNetwork.visualizer.networkConnectionVisualizer lineWidth 1
par ResourceNetwork.visualizer.networkConnectionVisualizer zIndex 0
par ResourceNetwork.visualizer.mobilityVisualizer typename "\"inet.visualizer.canvas.mobility.MobilityCanvasVisualizer\""
par ResourceNetwork.visualizer.mobilityVisualizer visualizationTargetModule "\"^.^\""
par ResourceNetwork.visualizer.mobilityVisualizer visualizationSubjectModule "\"^.^\""
par ResourceNetwork.visualizer.mobilityVisualizer tags "\"\""
par ResourceNetwork.visualizer.mobilityVisualizer networkNodeVisualizerModule "\"^.networkNodeVisualizer\""
par ResourceNetwork.visualizer.mobilityVisualizer displayMobility true
par ResourceNetwork.visualizer.mobilityVisualizer animationSpeed 0
par ResourceNetwork.visualizer.mobilityVisualizer moduleFilter "\"**.mobility\""
attr mutable ""
par ResourceNetwork.visualizer.mobilityVisualizer displayPositions false
par ResourceNetwork.visualizer.mobilityVisualizer positionCircleRadius 4
par ResourceNetwork.visualizer.mobilityVisualizer positionCircleLineWidth 1
par ResourceNetwork.visualizer.mobilityVisualizer positionCircleLineColor "\"dark\""
par ResourceNetwork.visualizer.mobilityVisualizer positionCircleFillColor "\"dark\""
par ResourceNetwork.visualizer.mobilityVisualizer displayOrientations false
par ResourceNetwork.visualizer.mobilityVisualizer orientationPieRadius 32
par ResourceNetwork.visualizer.mobilityVisualizer orientationPieSize 0.2
par ResourceNetwork.visualizer.mobilityVisualizer orientationPieOpacity 0.25
par ResourceNetwork.visualizer.mobilityVisualizer orientationLineColor "\"black\""
par ResourceNetwork.visualizer.mobilityVisualizer orientationLineStyle "\"solid\""
par ResourceNetwork.visualizer.mobilityVisualizer orientationLineWidth 1
par ResourceNetwork.visualizer.mobilityVisualizer orientationFillColor "\"blue\""
par ResourceNetwork.visualizer.mobilityVisualizer displayVelocities true
par ResourceNetwork.visualizer.mobilityVisualizer velocityArrowScale 1
par ResourceNetwork.visualizer.mobilityVisualizer velocityLineColor "\"black\""
par ResourceNetwork.visualizer.mobilityVisualizer velocityLineStyle "\"solid\""
par ResourceNetwork.visualizer.mobilityVisualizer velocityLineWidth 1
par ResourceNetwork.visualizer.mobilityVisualizer displayMovementTrails true
par ResourceNetwork.visualizer.mobilityVisualizer movementTrailLineColor "\"dark\""
par ResourceNetwork.visualizer.mobilityVisualizer movementTrailLineStyle "\"solid\""
par ResourceNetwork.visualizer.mobilityVisualizer movementTrailLineWidth 1
par ResourceNetwork.visualizer.mobilityVisualizer trailLength 100
par ResourceNetwork.visualizer.mobilityVisualizer zIndex 0
par ResourceNetwork.visualizer.statisticVisualizer typename "\"inet.visualizer.canvas.common.StatisticCanvasVisualizer\""
par ResourceNetwork.visualizer.statisticVisualizer visualizationTargetModule "\"^.^\""
par ResourceNetwork.visualizer.statisticVisualizer visualizationSubjectModule "\"^.^\""
par ResourceNetwork.visualizer.statisticVisualizer tags "\"\""
par ResourceNetwork.visualizer.statisticVisualizer networkNodeVisualizerModule "\"^.networkNodeVisualizer\""
par ResourceNetwork.visualizer.statisticVisualizer displayStatistics true
par ResourceNetwork.visualizer.statisticVisualizer signalName "\"\""
par ResourceNetwork.visualizer.statisticVisualizer statisticName "\"\""
par ResourceNetwork.visualizer.statisticVisualizer statisticUnit "\"\""
par ResourceNetwork.visualizer.statisticVisualizer statisticExpression "\"\""
par ResourceNetwork.visualizer.statisticVisualizer sourceFilter "\"**\""
attr mutable ""
par ResourceNetwork.visualizer.statisticVisualizer format "\"%n: %v %u\""
attr mutable ""
par ResourceNetwork.visualizer.statisticVisualizer unit "\"\""
par ResourceNetwork.visualizer.statisticVisualizer font "\"<default>\""
par ResourceNetwork.visualizer.statisticVisualizer textColor "\"black\""
par ResourceNetwork.visualizer.statisticVisualizer backgroundColor "\"white\""
par ResourceNetwork.visualizer.statisticVisualizer opacity 1
par ResourceNetwork.visualizer.statisticVisualizer placementHint "\"top\""
par ResourceNetwork.visualizer.statisticVisualizer placementPriority 0
par ResourceNetwork.visualizer.statisticVisualizer zIndex 10
par ResourceNetwork.visualizer.statisticVisualizer propertyName "\"\""
par ResourceNetwork.visualizer.statisticVisualizer propertyIndex "\"\""
par ResourceNetwork.visualizer.infoVisualizer typename "\"inet.visualizer.canvas.common.InfoCanvasVisualizer\""
par ResourceNetwork.visualizer.infoVisualizer visualizationTargetModule "\"^.^\""
par ResourceNetwork.visualizer.infoVisualizer visualizationSubjectModule "\"^.^\""
par ResourceNetwork.visualizer.infoVisualizer tags "\"\""
par ResourceNetwork.visualizer.infoVisualizer networkNodeVisualizerModule "\"^.networkNodeVisualizer\""
par ResourceNetwork.visualizer.infoVisualizer displayInfos true
par ResourceNetwork.visualizer.infoVisualizer modules "\"\""
attr mutable ""
par ResourceNetwork.visualizer.infoVisualizer format "\"%t\""
attr mutable ""
par ResourceNetwork.visualizer.infoVisualizer font "\"<default>\""
par ResourceNetwork.visualizer.infoVisualizer textColor "\"black\""
par ResourceNetwork.visualizer.infoVisualizer backgroundColor "\"white\""
par ResourceNetwork.visualizer.infoVisualizer opacity 1
par ResourceNetwork.visualizer.infoVisualizer placementHint "\"top\""
par ResourceNetwork.visualizer.infoVisualizer placementPriority 0
par ResourceNetwork.visualizer.infoVisualizer zIndex 10
par ResourceNetwork.visualizer.energyStorageVisualizer typename "\"inet.visualizer.canvas.power.EnergyStorageCanvasVisualizer\""
par ResourceNetwork.visualizer.energyStorageVisualizer visualizationTargetModule "\"^.^\""
par ResourceNetwork.visualizer.energyStorageVisualizer visualizationSubjectModule "\"^.^\""
par ResourceNetwork.visualizer.energyStorageVisualizer tags "\"\""
par ResourceNetwork.visualizer.energyStorageVisualizer networkNodeVisualizerModule "\"^.networkNodeVisualizer\""
par ResourceNetwork.visualizer.energyStorageVisualizer displayEnergyStorages false
par ResourceNetwork.visualizer.energyStorageVisualizer energyStorageFilter "\"**\""
par ResourceNetwork.visualizer.energyStorageVisualizer color "\"green\""
par ResourceNetwork.visualizer.energyStorageVisualizer width 8
par ResourceNetwork.visualizer.energyStorageVisualizer height 24
par ResourceNetwork.visualizer.energyStorageVisualizer spacing 2
par ResourceNetwork.visualizer.energyStorageVisualizer placementHint "\"right\""
par ResourceNetwork.visualizer.energyStorageVisualizer placementPriority 0
par ResourceNetwork.visualizer.energyStorageVisualizer zIndex 10
par ResourceNetwork.visualizer.mediumVisualizer typename "\"inet.visualizer.canvas.physicallayer.MediumCanvasVisualizer\""
par ResourceNetwork.visualizer.mediumVisualizer visualizationTargetModule "\"^.^\""
par ResourceNetwork.visualizer.mediumVisualizer visualizationSubjectModule "\"^.^\""
par ResourceNetwork.visualizer.mediumVisualizer tags "\"\""
par ResourceNetwork.visualizer.mediumVisualizer mediumModule "\"radioMedium\""
par ResourceNetwork.visualizer.mediumVisualizer networkNodeVisualizerModule "\"^.networkNodeVisualizer\""
par ResourceNetwork.visualizer.mediumVisualizer nodeFilter "\"*\""
attr mutable ""
par ResourceNetwork.visualizer.mediumVisualizer interfaceFilter "\"*\""
attr mutable ""
par ResourceNetwork.visualizer.mediumVisualizer packetFilter "(omnetpp::cValueHolder)holder: \"*\""
attr mutable ""
par ResourceNetwork.visualizer.mediumVisualizer displaySignals true
par ResourceNetwork.visualizer.mediumVisualizer signalColor "\"dark\""
par ResourceNetwork.visualizer.mediumVisualizer signalPropagationAnimationSpeed "nan "
attr mutable ""
par ResourceNetwork.visualizer.mediumVisualizer signalPropagationAnimationTime 1s
attr unit s
par ResourceNetwork.visualizer.mediumVisualizer signalPropagationAdditionalTime 0s
attr unit s
par ResourceNetwork.visualizer.mediumVisualizer signalTransmissionAnimationSpeed "nan "
attr mutable ""
par ResourceNetwork.visualizer.mediumVisualizer signalTransmissionAnimationTime 1s
attr unit s
par ResourceNetwork.visualizer.mediumVisualizer signalAnimationSpeedChangeTimeMode "\"realTime\""
attr enum realTime,animationTime,simulationTime
par ResourceNetwork.visualizer.mediumVisualizer signalAnimationSpeedChangeTime 1s
attr unit s
par ResourceNetwork.visualizer.mediumVisualizer displaySignalDepartures false
par ResourceNetwork.visualizer.mediumVisualizer signalDepartureImage "\"misc/signal_departure.png\""
par ResourceNetwork.visualizer.mediumVisualizer signalDeparturePlacementHint "\"topCenter\""
par ResourceNetwork.visualizer.mediumVisualizer signalDeparturePlacementPriority 1
par ResourceNetwork.visualizer.mediumVisualizer displaySignalArrivals false
par ResourceNetwork.visualizer.mediumVisualizer signalArrivalImage "\"misc/signal_arrival.png\""
par ResourceNetwork.visualizer.mediumVisualizer signalArrivalPlacementHint "\"topCenter\""
par ResourceNetwork.visualizer.mediumVisualizer signalArrivalPlacementPriority -1
par ResourceNetwork.visualizer.mediumVisualizer displayCommunicationRanges false
par ResourceNetwork.visualizer.mediumVisualizer communicationRangeLineColor "\"blue\""
par ResourceNetwork.visualizer.mediumVisualizer communicationRangeLineStyle "\"solid\""
par ResourceNetwork.visualizer.mediumVisualizer communicationRangeLineWidth 1
par ResourceNetwork.visualizer.mediumVisualizer displayInterferenceRanges false
par ResourceNetwork.visualizer.mediumVisualizer interferenceRangeLineColor "\"gray\""
par ResourceNetwork.visualizer.mediumVisualizer interferenceRangeLineStyle "\"solid\""
par ResourceNetwork.visualizer.mediumVisualizer interferenceRangeLineWidth 1
par ResourceNetwork.visualizer.mediumVisualizer autoPowerAxis true
par ResourceNetwork.visualizer.mediumVisualizer signalMinPower "inf dBmW"
attr unit dBmW
par ResourceNetwork.visualizer.mediumVisualizer signalMaxPower 0dBmW
attr unit dBmW
par ResourceNetwork.visualizer.mediumVisualizer signalMinPowerDensity "inf dBmWpMHz"
attr unit dBmWpMHz
par ResourceNetwork.visualizer.mediumVisualizer signalMaxPowerDensity "-inf dBmWpMHz"
attr unit dBmWpMHz
par ResourceNetwork.visualizer.mediumVisualizer autoTimeAxis true
par ResourceNetwork.visualizer.mediumVisualizer signalMinTime 0s
attr unit s
par ResourceNetwork.visualizer.mediumVisualizer signalMaxTime 0s
attr unit s
par ResourceNetwork.visualizer.mediumVisualizer autoFrequencyAxis true
par ResourceNetwork.visualizer.mediumVisualizer signalMinFrequency "inf Hz"
attr unit Hz
par ResourceNetwork.visualizer.mediumVisualizer signalMaxFrequency "-inf Hz"
attr unit Hz
par ResourceNetwork.visualizer.mediumVisualizer displayMainPowerDensityMap false
par ResourceNetwork.visualizer.mediumVisualizer mainPowerDensityMapPixmapDensity 1
par ResourceNetwork.visualizer.mediumVisualizer mainPowerDensityMapMinX 0
par ResourceNetwork.visualizer.mediumVisualizer mainPowerDensityMapMaxX "nan "
par ResourceNetwork.visualizer.mediumVisualizer mainPowerDensityMapMinY 0
par ResourceNetwork.visualizer.mediumVisualizer mainPowerDensityMapMaxY "nan "
par ResourceNetwork.visualizer.mediumVisualizer mainPowerDensityMapZ 0
par ResourceNetwork.visualizer.mediumVisualizer mainPowerDensityMapFigureXTickCount 3
par ResourceNetwork.visualizer.mediumVisualizer mainPowerDensityMapFigureYTickCount 3
par ResourceNetwork.visualizer.mediumVisualizer displayPowerDensityMaps false
par ResourceNetwork.visualizer.mediumVisualizer powerDensityMapMode "\"auto\""
attr enum total,signal,auto
par ResourceNetwork.visualizer.mediumVisualizer powerDensityMapPixelMode "\"mean\""
attr enum sample,partition,mean
par ResourceNetwork.visualizer.mediumVisualizer powerDensityMapApproximationSize 10
par ResourceNetwork.visualizer.mediumVisualizer powerDensityMapCenterFrequency "nan Hz"
attr mutable ""
attr unit Hz
par ResourceNetwork.visualizer.mediumVisualizer powerDensityMapBandwidth 0Hz
attr mutable ""
attr unit Hz
par ResourceNetwork.visualizer.mediumVisualizer powerDensityMapFigureWidth 200
par ResourceNetwork.visualizer.mediumVisualizer powerDensityMapFigureHeight 120
par ResourceNetwork.visualizer.mediumVisualizer powerDensityMapPixmapWidth 200
par ResourceNetwork.visualizer.mediumVisualizer powerDensityMapPixmapHeight 120
par ResourceNetwork.visualizer.mediumVisualizer powerDensityMapZ 0
par ResourceNetwork.visualizer.mediumVisualizer powerDensityMapFigureXTickCount 3
par ResourceNetwork.visualizer.mediumVisualizer powerDensityMapFigureYTickCount 3
par ResourceNetwork.visualizer.mediumVisualizer displaySpectrums false
par ResourceNetwork.visualizer.mediumVisualizer spectrumMode "\"auto\""
attr enum total,signal,auto
par ResourceNetwork.visualizer.mediumVisualizer spectrumFigureWidth 200
par ResourceNetwork.visualizer.mediumVisualizer spectrumFigureHeight 120
par ResourceNetwork.visualizer.mediumVisualizer spectrumFigureXTickCount 3
par ResourceNetwork.visualizer.mediumVisualizer spectrumFigureYTickCount 5
par ResourceNetwork.visualizer.mediumVisualizer spectrumFigureInterpolationSize 5
par ResourceNetwork.visualizer.mediumVisualizer spectrumPlacementHint "\"bottomCenter\""
par ResourceNetwork.visualizer.mediumVisualizer spectrumPlacementPriority -1
par ResourceNetwork.visualizer.mediumVisualizer displaySpectrograms false
par ResourceNetwork.visualizer.mediumVisualizer spectrogramMode "\"auto\""
attr enum total,signal,auto
par ResourceNetwork.visualizer.mediumVisualizer spectrogramPixelMode "\"mean\""
attr enum sample,partition,mean
par ResourceNetwork.visualizer.mediumVisualizer spectrogramFigureWidth 200
par ResourceNetwork.visualizer.mediumVisualizer spectrogramFigureHeight 120
par ResourceNetwork.visualizer.mediumVisualizer spectrogramPixmapWidth 200
par ResourceNetwork.visualizer.mediumVisualizer spectrogramPixmapHeight 120
par ResourceNetwork.visualizer.mediumVisualizer spectrogramFigureXTickCount 3
par ResourceNetwork.visualizer.mediumVisualizer spectrogramFigureYTickCount 5
par ResourceNetwork.visualizer.mediumVisualizer spectrogramPlacementHint "\"bottomCenter\""
par ResourceNetwork.visualizer.mediumVisualizer spectrogramPlacementPriority -1
par ResourceNetwork.visualizer.mediumVisualizer zIndex 0
par ResourceNetwork.visualizer.mediumVisualizer signalShape "\"ring\""
attr enum ring,sphere
par ResourceNetwork.visualizer.mediumVisualizer signalOpacity 0.5
par ResourceNetwork.visualizer.mediumVisualizer signalRingCount 20
par ResourceNetwork.visualizer.mediumVisualizer signalRingSize 50m
attr unit m
par ResourceNetwork.visualizer.mediumVisualizer signalFadingDistance 50m
attr unit m
par ResourceNetwork.visualizer.mediumVisualizer signalFadingFactor 1.2
par ResourceNetwork.visualizer.mediumVisualizer signalWaveCount 20
par ResourceNetwork.visualizer.mediumVisualizer signalWaveLength 50m
attr unit m
par ResourceNetwork.visualizer.mediumVisualizer signalWaveWidth 10m
attr unit m
par ResourceNetwork.visualizer.mediumVisualizer signalWaveFadingAnimationSpeedFactor 1
par ResourceNetwork.visualizer.mediumVisualizer displayCommunicationHeat false
par ResourceNetwork.visualizer.obstacleLossVisualizer typename "\"inet.visualizer.canvas.physicallayer.TracingObstacleLossCanvasVisualizer\""
par ResourceNetwork.visualizer.obstacleLossVisualizer visualizationTargetModule "\"^.^\""
par ResourceNetwork.visualizer.obstacleLossVisualizer visualizationSubjectModule "\"^.^\""
par ResourceNetwork.visualizer.obstacleLossVisualizer tags "\"\""
par ResourceNetwork.visualizer.obstacleLossVisualizer displayIntersections false
par ResourceNetwork.visualizer.obstacleLossVisualizer intersectionLineColor "\"red\""
par ResourceNetwork.visualizer.obstacleLossVisualizer intersectionLineStyle "\"solid\""
par ResourceNetwork.visualizer.obstacleLossVisualizer intersectionLineWidth 1
par ResourceNetwork.visualizer.obstacleLossVisualizer displayFaceNormalVectors false
par ResourceNetwork.visualizer.obstacleLossVisualizer faceNormalLineColor "\"grey\""
par ResourceNetwork.visualizer.obstacleLossVisualizer faceNormalLineStyle "\"solid\""
par ResourceNetwork.visualizer.obstacleLossVisualizer faceNormalLineWidth 1
par ResourceNetwork.visualizer.obstacleLossVisualizer fadeOutMode "\"realTime\""
attr enum realTime,animationTime,simulationTime
par ResourceNetwork.visualizer.obstacleLossVisualizer fadeOutTime 1s
attr unit s
par ResourceNetwork.visualizer.obstacleLossVisualizer fadeOutAnimationSpeed 0
par ResourceNetwork.visualizer.obstacleLossVisualizer zIndex 0
par ResourceNetwork.visualizer.packetDropVisualizer typename "\"inet.visualizer.canvas.common.PacketDropCanvasVisualizer\""
par ResourceNetwork.visualizer.packetDropVisualizer visualizationTargetModule "\"^.^\""
par ResourceNetwork.visualizer.packetDropVisualizer visualizationSubjectModule "\"^.^\""
par ResourceNetwork.visualizer.packetDropVisualizer tags "\"\""
par ResourceNetwork.visualizer.packetDropVisualizer displayPacketDrops false
par ResourceNetwork.visualizer.packetDropVisualizer nodeFilter "\"*\""
attr mutable ""
par ResourceNetwork.visualizer.packetDropVisualizer interfaceFilter "\"*\""
attr mutable ""
par ResourceNetwork.visualizer.packetDropVisualizer packetFilter "(omnetpp::cValueHolder)holder: \"*\""
attr mutable ""
par ResourceNetwork.visualizer.packetDropVisualizer detailsFilter "\"*\""
attr mutable ""
par ResourceNetwork.visualizer.packetDropVisualizer icon "\"msg/packet_s\""
par ResourceNetwork.visualizer.packetDropVisualizer iconTintAmount 1
par ResourceNetwork.visualizer.packetDropVisualizer iconTintColor "\"dark\""
par ResourceNetwork.visualizer.packetDropVisualizer labelFormat "\"%n\""
attr mutable ""
par ResourceNetwork.visualizer.packetDropVisualizer labelFont "\"<default>\""
par ResourceNetwork.visualizer.packetDropVisualizer labelColor "\"black\""
par ResourceNetwork.visualizer.packetDropVisualizer fadeOutMode "\"realTime\""
attr enum realTime,animationTime,simulationTime
par ResourceNetwork.visualizer.packetDropVisualizer fadeOutTime 1s
attr unit s
par ResourceNetwork.visualizer.packetDropVisualizer fadeOutAnimationSpeed 0
par ResourceNetwork.visualizer.packetDropVisualizer zIndex 10
par ResourceNetwork.visualizer.packetDropVisualizer dx 32
par ResourceNetwork.visualizer.packetDropVisualizer dy 64
par ResourceNetwork.visualizer.packetFlowVisualizer typename "\"inet.visualizer.canvas.flow.PacketFlowCanvasVisualizer\""
par ResourceNetwork.visualizer.packetFlowVisualizer visualizationTargetModule "\"^.^\""
par ResourceNetwork.visualizer.packetFlowVisualizer visualizationSubjectModule "\"^.^\""
par ResourceNetwork.visualizer.packetFlowVisualizer tags "\"\""
par ResourceNetwork.visualizer.packetFlowVisualizer displayRoutes false
par ResourceNetwork.visualizer.packetFlowVisualizer startPathSignal "\"packetFlowStarted\""
par ResourceNetwork.visualizer.packetFlowVisualizer extendPathSignal "\"packetReceivedFromLower\""
par ResourceNetwork.visualizer.packetFlowVisualizer endPathSignal "\"packetFlowEnded\""
par ResourceNetwork.visualizer.packetFlowVisualizer nodeFilter "\"*\""
attr mutable ""
par ResourceNetwork.visualizer.packetFlowVisualizer packetFilter "(omnetpp::cValueHolder)holder: \"*\""
attr mutable ""
par ResourceNetwork.visualizer.packetFlowVisualizer lineColor "\"dark\""
par ResourceNetwork.visualizer.packetFlowVisualizer lineStyle "\"dashed\""
par ResourceNetwork.visualizer.packetFlowVisualizer lineWidth 3
par ResourceNetwork.visualizer.packetFlowVisualizer lineSmooth false
par ResourceNetwork.visualizer.packetFlowVisualizer lineShift 16
par ResourceNetwork.visualizer.packetFlowVisualizer lineShiftMode "\"normal\""
par ResourceNetwork.visualizer.packetFlowVisualizer lineContactSpacing 3
par ResourceNetwork.visualizer.packetFlowVisualizer lineContactMode "\"rectangular\""
attr enum circular,rectangular
par ResourceNetwork.visualizer.packetFlowVisualizer labelFormat "\"%L %p pk (%l)\""
par ResourceNetwork.visualizer.packetFlowVisualizer labelFont "\"<default>, 8px\""
par ResourceNetwork.visualizer.packetFlowVisualizer labelColor "\"\""
par ResourceNetwork.visualizer.packetFlowVisualizer fadeOutMode "\"realTime\""
attr enum realTime,animationTime,simulationTime
par ResourceNetwork.visualizer.packetFlowVisualizer fadeOutTime 0s
attr unit s
par ResourceNetwork.visualizer.packetFlowVisualizer fadeOutAnimationSpeed 0
par ResourceNetwork.visualizer.packetFlowVisualizer zIndex 4
par ResourceNetwork.visualizer.queueVisualizer typename "\"inet.visualizer.canvas.common.QueueCanvasVisualizer\""
par ResourceNetwork.visualizer.queueVisualizer visualizationTargetModule "\"^.^\""
par ResourceNetwork.visualizer.queueVisualizer visualizationSubjectModule "\"^.^\""
par ResourceNetwork.visualizer.queueVisualizer tags "\"\""
par ResourceNetwork.visualizer.queueVisualizer networkNodeVisualizerModule "\"^.networkNodeVisualizer\""
par ResourceNetwork.visualizer.queueVisualizer displayQueues false
par ResourceNetwork.visualizer.queueVisualizer queueFilter "\"**\""
par ResourceNetwork.visualizer.queueVisualizer color "\"blue\""
par ResourceNetwork.visualizer.queueVisualizer width 8
par ResourceNetwork.visualizer.queueVisualizer height 24
par ResourceNetwork.visualizer.queueVisualizer spacing 2
par ResourceNetwork.visualizer.queueVisualizer placementHint "\"right\""
par ResourceNetwork.visualizer.queueVisualizer placementPriority 0
par ResourceNetwork.visualizer.queueVisualizer zIndex 10
par ResourceNetwork.visualizer.gateScheduleVisualizer typename "\"inet.visualizer.canvas.common.GateScheduleCanvasVisualizer\""
par ResourceNetwork.visualizer.gateScheduleVisualizer visualizationTargetModule "\"^.^\""
par ResourceNetwork.visualizer.gateScheduleVisualizer visualizationSubjectModule "\"^.^\""
par ResourceNetwork.visualizer.gateScheduleVisualizer tags "\"\""
par ResourceNetwork.visualizer.gateScheduleVisualizer networkNodeVisualizerModule "\"^.networkNodeVisualizer\""
par ResourceNetwork.visualizer.gateScheduleVisualizer displayGateSchedules false
par ResourceNetwork.visualizer.gateScheduleVisualizer labelFormat "\"%i %D\""
par ResourceNetwork.visualizer.gateScheduleVisualizer gateFilter "\"**\""
par ResourceNetwork.visualizer.gateScheduleVisualizer width 100
par ResourceNetwork.visualizer.gateScheduleVisualizer height 8
par ResourceNetwork.visualizer.gateScheduleVisualizer spacing 2
par ResourceNetwork.visualizer.gateScheduleVisualizer placementHint "\"right\""
par ResourceNetwork.visualizer.gateScheduleVisualizer placementPriority 0
par ResourceNetwork.visualizer.gateScheduleVisualizer displayDuration 0s
attr mutable ""
attr unit s
par ResourceNetwork.visualizer.gateScheduleVisualizer currentTimePosition 50
par ResourceNetwork.visualizer.gateScheduleVisualizer zIndex 10
par ResourceNetwork.visualizer.radioVisualizer typename "\"inet.visualizer.canvas.physicallayer.RadioCanvasVisualizer\""
par ResourceNetwork.visualizer.radioVisualizer visualizationTargetModule "\"^.^\""
par ResourceNetwork.visualizer.radioVisualizer visualizationSubjectModule "\"^.^\""
par ResourceNetwork.visualizer.radioVisualizer tags "\"\""
par ResourceNetwork.visualizer.radioVisualizer networkNodeVisualizerModule "\"^.networkNodeVisualizer\""
par ResourceNetwork.visualizer.radioVisualizer displayRadios false
par ResourceNetwork.visualizer.radioVisualizer displayRadioMode true
par ResourceNetwork.visualizer.radioVisualizer displayReceptionState true
par ResourceNetwork.visualizer.radioVisualizer displayTransmissionState true
par ResourceNetwork.visualizer.radioVisualizer displayAntennaLobes false
par ResourceNetwork.visualizer.radioVisualizer radioFilter "\"**\""
attr mutable ""
par ResourceNetwork.visualizer.radioVisualizer radioModeImages "\"block/process_vs block/timer_vs block/wrx_vs block/wtx_vs block/wrxtx_vs block/cogwheel_vs\""
par ResourceNetwork.visualizer.radioVisualizer receptionStateImages "\"- - misc/receiving misc/receiving\""
par ResourceNetwork.visualizer.radioVisualizer transmissionStateImages "\"- - misc/transmitting\""
par ResourceNetwork.visualizer.radioVisualizer width 16
par ResourceNetwork.visualizer.radioVisualizer height 16
par ResourceNetwork.visualizer.radioVisualizer placementHint "\"bottomRight\""
par ResourceNetwork.visualizer.radioVisualizer placementPriority 0
par ResourceNetwork.visualizer.radioVisualizer antennaLobeNormalize false
par ResourceNetwork.visualizer.radioVisualizer antennaLobeRelativeLabels false
par ResourceNetwork.visualizer.radioVisualizer antennaLobePlaneGlobal true
par ResourceNetwork.visualizer.radioVisualizer antennaLobePlane "\"view\""
attr enum view,xy,xz,yz
par ResourceNetwork.visualizer.radioVisualizer antennaLobeMode "\"logarithmic\""
attr enum logarithmic,linear
par ResourceNetwork.visualizer.radioVisualizer antennaLobeLogarithmicBase 10
par ResourceNetwork.visualizer.radioVisualizer antennaLobeLogarithmicScale 100
par ResourceNetwork.visualizer.radioVisualizer antennaLobeRadius 100
par ResourceNetwork.visualizer.radioVisualizer antennaLobeStep 10deg
attr unit deg
par ResourceNetwork.visualizer.radioVisualizer antennaLobeOpacity 0.25
par ResourceNetwork.visualizer.radioVisualizer antennaLobeLineSmooth true
par ResourceNetwork.visualizer.radioVisualizer antennaLobeLineColor "\"black\""
par ResourceNetwork.visualizer.radioVisualizer antennaLobeLineStyle "\"solid\""
par ResourceNetwork.visualizer.radioVisualizer antennaLobeLineWidth 1
par ResourceNetwork.visualizer.radioVisualizer antennaLobeFillColor "\"white\""
par ResourceNetwork.visualizer.radioVisualizer zIndex 10
par ResourceNetwork.visualizer.physicalLinkVisualizer typename "\"inet.visualizer.canvas.physicallayer.PhysicalLinkCanvasVisualizer\""
par ResourceNetwork.visualizer.physicalLinkVisualizer visualizationTargetModule "\"^.^\""
par ResourceNetwork.visualizer.physicalLinkVisualizer visualizationSubjectModule "\"^.^\""
par ResourceNetwork.visualizer.physicalLinkVisualizer tags "\"\""
par ResourceNetwork.visualizer.physicalLinkVisualizer displayLinks true
par ResourceNetwork.visualizer.physicalLinkVisualizer activityLevel "\"service\""
attr enum service,peer,protocol
par ResourceNetwork.visualizer.physicalLinkVisualizer nodeFilter "\"*\""
attr mutable ""
par ResourceNetwork.visualizer.physicalLinkVisualizer interfaceFilter "\"*\""
attr mutable ""
par ResourceNetwork.visualizer.physicalLinkVisualizer packetFilter "(omnetpp::cValueHolder)holder: \"TaskData\""
attr mutable ""
par ResourceNetwork.visualizer.physicalLinkVisualizer lineColor "\"olive\""
par ResourceNetwork.visualizer.physicalLinkVisualizer lineStyle "\"dotted\""
par ResourceNetwork.visualizer.physicalLinkVisualizer lineWidth 3
par ResourceNetwork.visualizer.physicalLinkVisualizer lineShift 16
par ResourceNetwork.visualizer.physicalLinkVisualizer lineShiftMode "\"normal\""
par ResourceNetwork.visualizer.physicalLinkVisualizer lineContactSpacing 3
par ResourceNetwork.visualizer.physicalLinkVisualizer lineContactMode "\"rectangular\""
attr enum circular,rectangular
par ResourceNetwork.visualizer.physicalLinkVisualizer labelFormat "\"%n\""
par ResourceNetwork.visualizer.physicalLinkVisualizer labelFont "\"<default>, 8px\""
par ResourceNetwork.visualizer.physicalLinkVisualizer labelColor "\"olive\""
par ResourceNetwork.visualizer.physicalLinkVisualizer fadeOutMode "\"realTime\""
attr enum realTime,animationTime,simulationTime
par ResourceNetwork.visualizer.physicalLinkVisualizer fadeOutTime 1s
attr unit s
par ResourceNetwork.visualizer.physicalLinkVisualizer fadeOutAnimationSpeed 0
par ResourceNetwork.visualizer.physicalLinkVisualizer holdAnimationTime 0s
attr unit s
par ResourceNetwork.visualizer.physicalLinkVisualizer zIndex 1
par ResourceNetwork.visualizer.interfaceTableVisualizer typename "\"inet.visualizer.canvas.linklayer.InterfaceTableCanvasVisualizer\""
par ResourceNetwork.visualizer.interfaceTableVisualizer visualizationTargetModule "\"^.^\""
par ResourceNetwork.visualizer.interfaceTableVisualizer visualizationSubjectModule "\"^.^\""
par ResourceNetwork.visualizer.interfaceTableVisualizer tags "\"\""
par ResourceNetwork.visualizer.interfaceTableVisualizer networkNodeVisualizerModule "\"^.networkNodeVisualizer\""
par ResourceNetwork.visualizer.interfaceTableVisualizer displayInterfaceTables false
par ResourceNetwork.visualizer.interfaceTableVisualizer displayWiredInterfacesAtConnections true
par ResourceNetwork.visualizer.interfaceTableVisualizer displayBackground false
par ResourceNetwork.visualizer.interfaceTableVisualizer nodeFilter "\"*\""
attr mutable ""
par ResourceNetwork.visualizer.interfaceTableVisualizer interfaceFilter "\"not(lo*)\""
attr mutable ""
par ResourceNetwork.visualizer.interfaceTableVisualizer format "\"%N %\\\\%a%/%l\""
attr mutable ""
par ResourceNetwork.visualizer.interfaceTableVisualizer placementHint "\"top\""
par ResourceNetwork.visualizer.interfaceTableVisualizer placementPriority 0
par ResourceNetwork.visualizer.interfaceTableVisualizer font "\"<default>\""
par ResourceNetwork.visualizer.interfaceTableVisualizer textColor "\"#005030\""
par ResourceNetwork.visualizer.interfaceTableVisualizer backgroundColor "\"white\""
par ResourceNetwork.visualizer.interfaceTableVisualizer opacity 1
par ResourceNetwork.visualizer.interfaceTableVisualizer zIndex 10
par ResourceNetwork.visualizer.dataLinkVisualizer typename "\"inet.visualizer.canvas.linklayer.DataLinkCanvasVisualizer\""
par ResourceNetwork.visualizer.dataLinkVisualizer visualizationTargetModule "\"^.^\""
par ResourceNetwork.visualizer.dataLinkVisualizer visualizationSubjectModule "\"^.^\""
par ResourceNetwork.visualizer.dataLinkVisualizer tags "\"\""
par ResourceNetwork.visualizer.dataLinkVisualizer displayLinks false
par ResourceNetwork.visualizer.dataLinkVisualizer activityLevel "\"service\""
attr enum service,peer,protocol
par ResourceNetwork.visualizer.dataLinkVisualizer nodeFilter "\"*\""
attr mutable ""
par ResourceNetwork.visualizer.dataLinkVisualizer interfaceFilter "\"*\""
attr mutable ""
par ResourceNetwork.visualizer.dataLinkVisualizer packetFilter "(omnetpp::cValueHolder)holder: \"*\""
attr mutable ""
par ResourceNetwork.visualizer.dataLinkVisualizer lineColor "\"darkcyan\""
par ResourceNetwork.visualizer.dataLinkVisualizer lineStyle "\"solid\""
par ResourceNetwork.visualizer.dataLinkVisualizer lineWidth 3
par ResourceNetwork.visualizer.dataLinkVisualizer lineShift 16
par ResourceNetwork.visualizer.dataLinkVisualizer lineShiftMode "\"normal\""
par ResourceNetwork.visualizer.dataLinkVisualizer lineContactSpacing 3
par ResourceNetwork.visualizer.dataLinkVisualizer lineContactMode "\"rectangular\""
attr enum circular,rectangular
par ResourceNetwork.visualizer.dataLinkVisualizer labelFormat "\"%n\""
par ResourceNetwork.visualizer.dataLinkVisualizer labelFont "\"<default>, 8px\""
par ResourceNetwork.visualizer.dataLinkVisualizer labelColor "\"darkcyan\""
par ResourceNetwork.visualizer.dataLinkVisualizer fadeOutMode "\"realTime\""
attr enum realTime,animationTime,simulationTime
par ResourceNetwork.visualizer.dataLinkVisualizer fadeOutTime 1s
attr unit s
par ResourceNetwork.visualizer.dataLinkVisualizer fadeOutAnimationSpeed 0
par ResourceNetwork.visualizer.dataLinkVisualizer holdAnimationTime 0s
attr unit s
par ResourceNetwork.visualizer.dataLinkVisualizer zIndex 2
par ResourceNetwork.visualizer.linkBreakVisualizer typename "\"inet.visualizer.canvas.linklayer.LinkBreakCanvasVisualizer\""
par ResourceNetwork.visualizer.linkBreakVisualizer visualizationTargetModule "\"^.^\""
par ResourceNetwork.visualizer.linkBreakVisualizer visualizationSubjectModule "\"^.^\""
par ResourceNetwork.visualizer.linkBreakVisualizer tags "\"\""
par ResourceNetwork.visualizer.linkBreakVisualizer displayLinkBreaks false
par ResourceNetwork.visualizer.linkBreakVisualizer nodeFilter "\"*\""
attr mutable ""
par ResourceNetwork.visualizer.linkBreakVisualizer interfaceFilter "\"*\""
attr mutable ""
par ResourceNetwork.visualizer.linkBreakVisualizer packetFilter "(omnetpp::cValueHolder)holder: \"*\""
attr mutable ""
par ResourceNetwork.visualizer.linkBreakVisualizer icon "\"status/stop\""
par ResourceNetwork.visualizer.linkBreakVisualizer iconTintAmount 0
par ResourceNetwork.visualizer.linkBreakVisualizer iconTintColor "\"\""
par ResourceNetwork.visualizer.linkBreakVisualizer fadeOutMode "\"realTime\""
attr enum realTime,animationTime,simulationTime
par ResourceNetwork.visualizer.linkBreakVisualizer fadeOutTime 1s
attr unit s
par ResourceNetwork.visualizer.linkBreakVisualizer fadeOutAnimationSpeed 0
par ResourceNetwork.visualizer.linkBreakVisualizer zIndex 2
par ResourceNetwork.visualizer.ieee80211Visualizer typename "\"inet.visualizer.canvas.linklayer.Ieee80211CanvasVisualizer\""
par ResourceNetwork.visualizer.ieee80211Visualizer visualizationTargetModule "\"^.^\""
par ResourceNetwork.visualizer.ieee80211Visualizer visualizationSubjectModule "\"^.^\""
par ResourceNetwork.visualizer.ieee80211Visualizer tags "\"\""
par ResourceNetwork.visualizer.ieee80211Visualizer networkNodeVisualizerModule "\"^.networkNodeVisualizer\""
par ResourceNetwork.visualizer.ieee80211Visualizer displayAssociations false
par ResourceNetwork.visualizer.ieee80211Visualizer nodeFilter "\"*\""
attr mutable ""
par ResourceNetwork.visualizer.ieee80211Visualizer interfaceFilter "\"*\""
attr mutable ""
par ResourceNetwork.visualizer.ieee80211Visualizer minPower -85dBm
attr unit dBm
par ResourceNetwork.visualizer.ieee80211Visualizer maxPower -50dBm
attr unit dBm
par ResourceNetwork.visualizer.ieee80211Visualizer icons "\"misc/signal_power_0 misc/signal_power_1 misc/signal_power_2 misc/signal_power_3\""
par ResourceNetwork.visualizer.ieee80211Visualizer iconColor "\"dark\""
par ResourceNetwork.visualizer.ieee80211Visualizer labelFont "\"<default>\""
par ResourceNetwork.visualizer.ieee80211Visualizer labelColor "\"black\""
par ResourceNetwork.visualizer.ieee80211Visualizer placementHint "\"top\""
par ResourceNetwork.visualizer.ieee80211Visualizer placementPriority 0
par ResourceNetwork.visualizer.ieee80211Visualizer zIndex 2
par ResourceNetwork.visualizer.networkRouteVisualizer typename "\"inet.visualizer.canvas.networklayer.NetworkRouteCanvasVisualizer\""
par ResourceNetwork.visualizer.networkRouteVisualizer visualizationTargetModule "\"^.^\""
par ResourceNetwork.visualizer.networkRouteVisualizer visualizationSubjectModule "\"^.^\""
par ResourceNetwork.visualizer.networkRouteVisualizer tags "\"\""
par ResourceNetwork.visualizer.networkRouteVisualizer displayRoutes false
par ResourceNetwork.visualizer.networkRouteVisualizer startPathSignal "\"packetReceivedFromUpper\""
par ResourceNetwork.visualizer.networkRouteVisualizer extendPathSignal "\"packetReceivedFromLower\""
par ResourceNetwork.visualizer.networkRouteVisualizer endPathSignal "\"packetSentToUpper\""
par ResourceNetwork.visualizer.networkRouteVisualizer nodeFilter "\"*\""
attr mutable ""
par ResourceNetwork.visualizer.networkRouteVisualizer packetFilter "(omnetpp::cValueHolder)holder: \"*\""
attr mutable ""
par ResourceNetwork.visualizer.networkRouteVisualizer lineColor "\"dark\""
par ResourceNetwork.visualizer.networkRouteVisualizer lineStyle "\"solid\""
par ResourceNetwork.visualizer.networkRouteVisualizer lineWidth 3
par ResourceNetwork.visualizer.networkRouteVisualizer lineSmooth false
par ResourceNetwork.visualizer.networkRouteVisualizer lineShift 16
par ResourceNetwork.visualizer.networkRouteVisualizer lineShiftMode "\"normal\""
par ResourceNetwork.visualizer.networkRouteVisualizer lineContactSpacing 3
par ResourceNetwork.visualizer.networkRouteVisualizer lineContactMode "\"rectangular\""
attr enum circular,rectangular
par ResourceNetwork.visualizer.networkRouteVisualizer labelFormat "\"%n\""
par ResourceNetwork.visualizer.networkRouteVisualizer labelFont "\"<default>, 8px\""
par ResourceNetwork.visualizer.networkRouteVisualizer labelColor "\"\""
par ResourceNetwork.visualizer.networkRouteVisualizer fadeOutMode "\"realTime\""
attr enum realTime,animationTime,simulationTime
par ResourceNetwork.visualizer.networkRouteVisualizer fadeOutTime 1s
attr unit s
par ResourceNetwork.visualizer.networkRouteVisualizer fadeOutAnimationSpeed 0
par ResourceNetwork.visualizer.networkRouteVisualizer zIndex 3
par ResourceNetwork.visualizer.routingTableVisualizer typename "\"inet.visualizer.canvas.networklayer.RoutingTableCanvasVisualizer\""
par ResourceNetwork.visualizer.routingTableVisualizer visualizationTargetModule "\"^.^\""
par ResourceNetwork.visualizer.routingTableVisualizer visualizationSubjectModule "\"^.^\""
par ResourceNetwork.visualizer.routingTableVisualizer tags "\"\""
par ResourceNetwork.visualizer.routingTableVisualizer displayRoutingTables false
par ResourceNetwork.visualizer.routingTableVisualizer displayRoutesIndividually true
par ResourceNetwork.visualizer.routingTableVisualizer displayLabels true
par ResourceNetwork.visualizer.routingTableVisualizer destinationFilter "\"*\""
attr mutable ""
par ResourceNetwork.visualizer.routingTableVisualizer nodeFilter "\"*\""
attr mutable ""
par ResourceNetwork.visualizer.routingTableVisualizer lineColor "\"black\""
par ResourceNetwork.visualizer.routingTableVisualizer lineStyle "\"solid\""
par ResourceNetwork.visualizer.routingTableVisualizer lineWidth 2
par ResourceNetwork.visualizer.routingTableVisualizer lineShift 16
par ResourceNetwork.visualizer.routingTableVisualizer lineShiftMode "\"normal\""
par ResourceNetwork.visualizer.routingTableVisualizer lineContactSpacing 3
par ResourceNetwork.visualizer.routingTableVisualizer lineContactMode "\"rectangular\""
attr enum circular,rectangular
par ResourceNetwork.visualizer.routingTableVisualizer labelFormat "\"%d/%m -> %g (%n)\""
attr mutable ""
par ResourceNetwork.visualizer.routingTableVisualizer labelFont "\"<default>, 8px\""
par ResourceNetwork.visualizer.routingTableVisualizer labelColor "\"black\""
par ResourceNetwork.visualizer.routingTableVisualizer zIndex 0
par ResourceNetwork.visualizer.transportRouteVisualizer typename "\"inet.visualizer.canvas.transportlayer.TransportRouteCanvasVisualizer\""
par ResourceNetwork.visualizer.transportRouteVisualizer visualizationTargetModule "\"^.^\""
par ResourceNetwork.visualizer.transportRouteVisualizer visualizationSubjectModule "\"^.^\""
par ResourceNetwork.visualizer.transportRouteVisualizer tags "\"\""
par ResourceNetwork.visualizer.transportRouteVisualizer displayRoutes false
par ResourceNetwork.visualizer.transportRouteVisualizer startPathSignal "\"packetReceivedFromUpper\""
par ResourceNetwork.visualizer.transportRouteVisualizer extendPathSignal "\"packetReceivedFromLower\""
par ResourceNetwork.visualizer.transportRouteVisualizer endPathSignal "\"packetSentToUpper\""
par ResourceNetwork.visualizer.transportRouteVisualizer nodeFilter "\"*\""
attr mutable ""
par ResourceNetwork.visualizer.transportRouteVisualizer packetFilter "(omnetpp::cValueHolder)holder: \"*\""
attr mutable ""
par ResourceNetwork.visualizer.transportRouteVisualizer lineColor "\"dark\""
par ResourceNetwork.visualizer.transportRouteVisualizer lineStyle "\"solid\""
par ResourceNetwork.visualizer.transportRouteVisualizer lineWidth 3
par ResourceNetwork.visualizer.transportRouteVisualizer lineSmooth false
par ResourceNetwork.visualizer.transportRouteVisualizer lineShift 16
par ResourceNetwork.visualizer.transportRouteVisualizer lineShiftMode "\"normal\""
par ResourceNetwork.visualizer.transportRouteVisualizer lineContactSpacing 3
par ResourceNetwork.visualizer.transportRouteVisualizer lineContactMode "\"rectangular\""
attr enum circular,rectangular
par ResourceNetwork.visualizer.transportRouteVisualizer labelFormat "\"%n\""
par ResourceNetwork.visualizer.transportRouteVisualizer labelFont "\"<default>, 8px\""
par ResourceNetwork.visualizer.transportRouteVisualizer labelColor "\"\""
par ResourceNetwork.visualizer.transportRouteVisualizer fadeOutMode "\"realTime\""
attr enum realTime,animationTime,simulationTime
par ResourceNetwork.visualizer.transportRouteVisualizer fadeOutTime 1s
attr unit s
par ResourceNetwork.visualizer.transportRouteVisualizer fadeOutAnimationSpeed 0
par ResourceNetwork.visualizer.transportRouteVisualizer zIndex 4
par ResourceNetwork.visualizer.transportConnectionVisualizer typename "\"inet.visualizer.canvas.transportlayer.TransportConnectionCanvasVisualizer\""
par ResourceNetwork.visualizer.transportConnectionVisualizer visualizationTargetModule "\"^.^\""
par ResourceNetwork.visualizer.transportConnectionVisualizer visualizationSubjectModule "\"^.^\""
par ResourceNetwork.visualizer.transportConnectionVisualizer tags "\"\""
par ResourceNetwork.visualizer.transportConnectionVisualizer networkNodeVisualizerModule "\"^.networkNodeVisualizer\""
par ResourceNetwork.visualizer.transportConnectionVisualizer displayTransportConnections false
par ResourceNetwork.visualizer.transportConnectionVisualizer sourceNodeFilter "\"*\""
attr mutable ""
par ResourceNetwork.visualizer.transportConnectionVisualizer sourcePortFilter "\"*\""
attr mutable ""
par ResourceNetwork.visualizer.transportConnectionVisualizer destinationNodeFilter "\"*\""
attr mutable ""
par ResourceNetwork.visualizer.transportConnectionVisualizer destinationPortFilter "\"*\""
attr mutable ""
par ResourceNetwork.visualizer.transportConnectionVisualizer icon "\"misc/marker_s\""
par ResourceNetwork.visualizer.transportConnectionVisualizer iconColor "\"dark\""
par ResourceNetwork.visualizer.transportConnectionVisualizer labelFont "\"<default>\""
par ResourceNetwork.visualizer.transportConnectionVisualizer labelColor "\"black\""
par ResourceNetwork.visualizer.transportConnectionVisualizer placementHint "\"top\""
par ResourceNetwork.visualizer.transportConnectionVisualizer placementPriority 0
par ResourceNetwork.visualizer.transportConnectionVisualizer zIndex 4
par ResourceNetwork.visualizer.failureProtectionConfigurationVisualizer typename "\"inet.visualizer.canvas.configurator.FailureProtectionConfigurationCanvasVisualizer\""
par ResourceNetwork.visualizer.failureProtectionConfigurationVisualizer visualizationTargetModule "\"^.^\""
par ResourceNetwork.visualizer.failureProtectionConfigurationVisualizer visualizationSubjectModule "\"^.^\""
par ResourceNetwork.visualizer.failureProtectionConfigurationVisualizer tags "\"\""
par ResourceNetwork.visualizer.failureProtectionConfigurationVisualizer displayTrees false
par ResourceNetwork.visualizer.failureProtectionConfigurationVisualizer lineColor "\"dark\""
par ResourceNetwork.visualizer.failureProtectionConfigurationVisualizer lineStyle "\"solid\""
par ResourceNetwork.visualizer.failureProtectionConfigurationVisualizer lineWidth 3
par ResourceNetwork.visualizer.failureProtectionConfigurationVisualizer lineSmooth false
par ResourceNetwork.visualizer.failureProtectionConfigurationVisualizer lineShift 16
par ResourceNetwork.visualizer.failureProtectionConfigurationVisualizer lineShiftMode "\"normal\""
par ResourceNetwork.visualizer.failureProtectionConfigurationVisualizer lineContactSpacing 3
par ResourceNetwork.visualizer.failureProtectionConfigurationVisualizer lineContactMode "\"rectangular\""
attr enum circular,rectangular
par ResourceNetwork.visualizer.failureProtectionConfigurationVisualizer failureProtectionConfiguratorModule "\"failureProtectionConfigurator\""
par ResourceNetwork.visualizer.failureProtectionConfigurationVisualizer streamFilter "\"*\""
par ResourceNetwork.visualizer.failureProtectionConfigurationVisualizer zIndex 3
par ResourceNetwork.visualizer.streamRedundancyConfigurationVisualizer typename "\"inet.visualizer.canvas.configurator.StreamRedundancyConfigurationCanvasVisualizer\""
par ResourceNetwork.visualizer.streamRedundancyConfigurationVisualizer visualizationTargetModule "\"^.^\""
par ResourceNetwork.visualizer.streamRedundancyConfigurationVisualizer visualizationSubjectModule "\"^.^\""
par ResourceNetwork.visualizer.streamRedundancyConfigurationVisualizer tags "\"\""
par ResourceNetwork.visualizer.streamRedundancyConfigurationVisualizer displayTrees false
par ResourceNetwork.visualizer.streamRedundancyConfigurationVisualizer lineColor "\"dark\""
par ResourceNetwork.visualizer.streamRedundancyConfigurationVisualizer lineStyle "\"solid\""
par ResourceNetwork.visualizer.streamRedundancyConfigurationVisualizer lineWidth 3
par ResourceNetwork.visualizer.streamRedundancyConfigurationVisualizer lineSmooth false
par ResourceNetwork.visualizer.streamRedundancyConfigurationVisualizer lineShift 16
par ResourceNetwork.visualizer.streamRedundancyConfigurationVisualizer lineShiftMode "\"normal\""
par ResourceNetwork.visualizer.streamRedundancyConfigurationVisualizer lineContactSpacing 3
par ResourceNetwork.visualizer.streamRedundancyConfigurationVisualizer lineContactMode "\"rectangular\""
attr enum circular,rectangular
par ResourceNetwork.visualizer.streamRedundancyConfigurationVisualizer streamRedundancyConfiguratorModule "\"streamRedundancyConfigurator\""
par ResourceNetwork.visualizer.streamRedundancyConfigurationVisualizer streamFilter "\"*\""
par ResourceNetwork.visualizer.streamRedundancyConfigurationVisualizer zIndex 3
par ResourceNetwork.visualizer typename "\"inet.visualizer.canvas.integrated.IntegratedCanvasVisualizer\""
par ResourceNetwork.configurator typename "\"inet.networklayer.configurator.ipv4.Ipv4NetworkConfigurator\""
par ResourceNetwork.configurator minLinkWeight 0.001
par ResourceNetwork.configurator configureIsolatedNetworksSeparatly false
par ResourceNetwork.configurator config "<config>...</config> at content:1"
par ResourceNetwork.configurator assignAddresses true
par ResourceNetwork.configurator assignUniqueAddresses true
par ResourceNetwork.configurator assignDisjunctSubnetAddresses true
par ResourceNetwork.configurator addStaticRoutes true
par ResourceNetwork.configurator addDefaultRoutes true
par ResourceNetwork.configurator addSubnetRoutes true
par ResourceNetwork.configurator addDirectRoutes true
par ResourceNetwork.configurator optimizeRoutes true
par ResourceNetwork.configurator dumpTopology false
par ResourceNetwork.configurator dumpLinks false
par ResourceNetwork.configurator dumpAddresses false
par ResourceNetwork.configurator dumpRoutes false
par ResourceNetwork.configurator dumpConfig "\"\""
par ResourceNetwork.radioMedium.propagation typename "\"inet.physicallayer.wireless.common.propagation.ConstantSpeedPropagation\""
par ResourceNetwork.radioMedium.propagation propagationSpeed 2.99792e+08mps
attr unit mps
par ResourceNetwork.radioMedium.propagation ignoreMovementDuringTransmission true
par ResourceNetwork.radioMedium.propagation ignoreMovementDuringPropagation true
par ResourceNetwork.radioMedium.propagation ignoreMovementDuringReception true
scalar ResourceNetwork.radioMedium.propagation "Arrival computation count" 126
par ResourceNetwork.radioMedium.analogModel typename "\"inet.physicallayer.wireless.common.analogmodel.packetlevel.ScalarAnalogModel\""
par ResourceNetwork.radioMedium.analogModel ignorePartialInterference true
par ResourceNetwork.radioMedium.backgroundNoise typename "\"inet.physicallayer.wireless.common.backgroundnoise.IsotropicScalarBackgroundNoise\""
par ResourceNetwork.radioMedium.backgroundNoise power -90dBm
attr unit dBm
par ResourceNetwork.radioMedium.backgroundNoise bandwidth 2e+06Hz
attr unit Hz
par ResourceNetwork.radioMedium.pathLoss typename "\"inet.physicallayer.wireless.common.pathloss.FreeSpacePathLoss\""
par ResourceNetwork.radioMedium.pathLoss alpha 2
par ResourceNetwork.radioMedium.pathLoss systemLoss 0dB
attr unit dB
par ResourceNetwork.radioMedium.mediumLimitCache typename "\"inet.physicallayer.wireless.common.medium.MediumLimitCache\""
par ResourceNetwork.radioMedium.mediumLimitCache centerFrequency 2e+09Hz
attr unit Hz
par ResourceNetwork.radioMedium.mediumLimitCache maxSpeed "nan mps"
attr unit mps
par ResourceNetwork.radioMedium.mediumLimitCache maxTransmissionPower "nan W"
attr unit W
par ResourceNetwork.radioMedium.mediumLimitCache minInterferencePower "nan dBm"
attr unit dBm
par ResourceNetwork.radioMedium.mediumLimitCache minReceptionPower "nan dBm"
attr unit dBm
par ResourceNetwork.radioMedium.mediumLimitCache maxAntennaGain 0dB
attr unit dB
par ResourceNetwork.radioMedium.mediumLimitCache minInterferenceTime 1e-12s
attr unit s
par ResourceNetwork.radioMedium.mediumLimitCache maxTransmissionDuration 0.01s
attr unit s
par ResourceNetwork.radioMedium.mediumLimitCache maxCommunicationRange "nan m"
attr unit m
par ResourceNetwork.radioMedium.mediumLimitCache maxInterferenceRange "nan m"
attr unit m
par ResourceNetwork.radioMedium.communicationCache typename "\"inet.physicallayer.wireless.common.communicationcache.VectorCommunicationCache\""
par ResourceNetwork.radioMedium typename "\"inet.physicallayer.wireless.apsk.packetlevel.ApskScalarRadioMedium\""
par ResourceNetwork.radioMedium physicalEnvironmentModule "\"physicalEnvironment\""
par ResourceNetwork.radioMedium signalAnalogRepresentation "\"scalar\""
attr enum unitDisk,scalar,dimensional
par ResourceNetwork.radioMedium rangeFilter "\"\""
par ResourceNetwork.radioMedium radioModeFilter false
par ResourceNetwork.radioMedium listeningFilter false
par ResourceNetwork.radioMedium macAddressFilter true
par ResourceNetwork.radioMedium recordTransmissionLog false
par ResourceNetwork.radioMedium recordReceptionLog false
scalar ResourceNetwork.radioMedium "transmission count" 42
scalar ResourceNetwork.radioMedium "signal send count" 46
scalar ResourceNetwork.radioMedium "reception computation count" 48
scalar ResourceNetwork.radioMedium "interference computation count" 180
scalar ResourceNetwork.radioMedium "reception decision computation count" 39
scalar ResourceNetwork.radioMedium "listening decision computation count" 96
scalar ResourceNetwork.radioMedium "reception cache hit" 85.798816568047
attr unit %
scalar ResourceNetwork.radioMedium "interference cache hit" 66.666666666667
attr unit %
scalar ResourceNetwork.radioMedium "noise cache hit" 0
attr unit %
scalar ResourceNetwork.radioMedium "snir cache hit" 50
attr unit %
scalar ResourceNetwork.radioMedium "reception decision cache hit" 50
attr unit %
scalar ResourceNetwork.radioMedium "reception result cache hit" 0
attr unit %
par ResourceNetwork.hostA.radioIn[0].channel typename "\"ned.IdealChannel\""
par ResourceNetwork.hostA.mobility typename "\"inet.mobility.single.LinearMobility\""
par ResourceNetwork.hostA.mobility subjectModule "\"^\""
par ResourceNetwork.hostA.mobility coordinateSystemModule "\"\""
par ResourceNetwork.hostA.mobility displayStringTextFormat "\"p: %p\\nv: %v\""
attr mutable ""
par ResourceNetwork.hostA.mobility updateDisplayString true
par ResourceNetwork.hostA.mobility constraintAreaMinX "-inf m"
attr unit m
par ResourceNetwork.hostA.mobility constraintAreaMinY "-inf m"
attr unit m
par ResourceNetwork.hostA.mobility constraintAreaMinZ "-inf m"
attr unit m
par ResourceNetwork.hostA.mobility constraintAreaMaxX "inf m"
attr unit m
par ResourceNetwork.hostA.mobility constraintAreaMaxY "inf m"
attr unit m
par ResourceNetwork.hostA.mobility constraintAreaMaxZ "inf m"
attr unit m
par ResourceNetwork.hostA.mobility updateInterval 0.1s
attr unit s
par ResourceNetwork.hostA.mobility faceForward true
par ResourceNetwork.hostA.mobility initialX "nan m"
attr unit m
par ResourceNetwork.hostA.mobility initialY "nan m"
attr unit m
par ResourceNetwork.hostA.mobility initialZ 0m
attr unit m
par ResourceNetwork.hostA.mobility initFromDisplayString true
par ResourceNetwork.hostA.mobility speed 12mps
attr unit mps
par ResourceNetwork.hostA.mobility initialMovementHeading 200deg
attr unit deg
par ResourceNetwork.hostA.mobility initialMovementElevation 0deg
attr unit deg
par ResourceNetwork.hostA.interfaceTable typename "\"inet.networklayer.common.InterfaceTable\""
par ResourceNetwork.hostA.interfaceTable displayAddresses false
par ResourceNetwork.hostA.cb typename "\"inet.common.MessageDispatcher\""
par ResourceNetwork.hostA.cb displayStringTextFormat "\"processed %p pk (%l)\""
par ResourceNetwork.hostA.cb forwardServiceRegistration true
par ResourceNetwork.hostA.cb forwardProtocolRegistration true
par ResourceNetwork.hostA.bl typename "\"inet.common.MessageDispatcher\""
par ResourceNetwork.hostA.bl displayStringTextFormat "\"processed %p pk (%l)\""
par ResourceNetwork.hostA.bl forwardServiceRegistration true
par ResourceNetwork.hostA.bl forwardProtocolRegistration true
par ResourceNetwork.hostA.li typename "\"inet.common.MessageDispatcher\""
par ResourceNetwork.hostA.li displayStringTextFormat "\"processed %p pk (%l)\""
par ResourceNetwork.hostA.li forwardServiceRegistration true
par ResourceNetwork.hostA.li forwardProtocolRegistration true
par ResourceNetwork.hostA.lo[0].upperLayerIn.channel typename "\"ned.IdealChannel\""
par ResourceNetwork.hostA.lo[0].lo.upperLayerOut.channel typename "\"ned.IdealChannel\""
par ResourceNetwork.hostA.lo[0].lo typename "\"inet.linklayer.loopback.Loopback\""
par ResourceNetwork.hostA.lo[0].lo interfaceTableModule "\"ResourceNetwork.hostA.interfaceTable\""
par ResourceNetwork.hostA.lo[0].lo mtu 4470B
attr unit B
scalar ResourceNetwork.hostA.lo[0].lo rcvdPkFromHl:count 0
attr interpolationmode none
attr recordingmode count
attr source packetReceivedFromUpper
attr title "packets received from higher layer, count"
scalar ResourceNetwork.hostA.lo[0].lo rcvdPkFromHl:sum(packetBytes) 0
attr interpolationmode none
attr recordingmode sum(packetBytes)
attr source packetReceivedFromUpper
attr title "packets received from higher layer, sum(packetBytes)"
scalar ResourceNetwork.hostA.lo[0].lo passedUpPk:count 0
attr interpolationmode none
attr recordingmode count
attr source packetSentToUpper
attr title "packets passed to higher layer, count"
scalar ResourceNetwork.hostA.lo[0].lo passedUpPk:sum(packetBytes) 0
attr interpolationmode none
attr recordingmode sum(packetBytes)
attr source packetSentToUpper
attr title "packets passed to higher layer, sum(packetBytes)"
par ResourceNetwork.hostA.lo[0] typename "\"inet.linklayer.loopback.LoopbackInterface\""
par ResourceNetwork.hostA.lo[0] displayStringTextFormat "\"%a (%i)\\n%m\""
par ResourceNetwork.hostA.lo[0] recordPcap false
par ResourceNetwork.hostA.lo[0] numPcapRecorders 0
par ResourceNetwork.hostA.lo[0] interfaceTableModule "\"ResourceNetwork.hostA.interfaceTable\""
scalar ResourceNetwork.hostA.lo[0] packetDropInterfaceDown:count 0
attr interpolationmode none
attr recordingmode count
attr source packetDropReasonIsInterfaceDown(packetDropped)
attr title "packet drops: interface down, count"
scalar ResourceNetwork.hostA.lo[0] packetDropInterfaceDown:sum(packetBytes) 0
attr interpolationmode none
attr recordingmode sum(packetBytes)
attr source packetDropReasonIsInterfaceDown(packetDropped)
attr title "packet drops: interface down, sum(packetBytes)"
scalar ResourceNetwork.hostA.lo[0] packetDropNoCarrier:count 0
attr interpolationmode none
attr recordingmode count
attr source packetDropReasonIsNoCarrier(packetDropped)
attr title "packet drops: no carrier, count"
scalar ResourceNetwork.hostA.lo[0] packetDropNoCarrier:sum(packetBytes) 0
attr interpolationmode none
attr recordingmode sum(packetBytes)
attr source packetDropReasonIsNoCarrier(packetDropped)
attr title "packet drops: no carrier, sum(packetBytes)"
par ResourceNetwork.hostA.wlan[0].radioIn.channel typename "\"ned.IdealChannel\""
par ResourceNetwork.hostA.wlan[0].llc.upperLayerOut.channel typename "\"ned.IdealChannel\""
par ResourceNetwork.hostA.wlan[0].upperLayerIn.channel typename "\"ned.IdealChannel\""
par ResourceNetwork.hostA.wlan[0].mib typename "\"inet.linklayer.ieee80211.mib.Ieee80211Mib\""
par ResourceNetwork.hostA.wlan[0].llc typename "\"inet.linklayer.ieee80211.llc.Ieee80211LlcLpd\""
par ResourceNetwork.hostA.wlan[0].llc registerProtocol false
par ResourceNetwork.hostA.wlan[0].agent typename "\"inet.linklayer.ieee80211.mgmt.Ieee80211AgentSta\""
par ResourceNetwork.hostA.wlan[0].agent interfaceTableModule "\"ResourceNetwork.hostA.interfaceTable\""
par ResourceNetwork.hostA.wlan[0].agent mibModule "\"ResourceNetwork.hostA.wlan[0].mib\""
par ResourceNetwork.hostA.wlan[0].agent activeScan true
par ResourceNetwork.hostA.wlan[0].agent channelsToScan "\"\""
par ResourceNetwork.hostA.wlan[0].agent probeDelay 0.1s
attr unit s
par ResourceNetwork.hostA.wlan[0].agent minChannelTime 0.15s
attr unit s
par ResourceNetwork.hostA.wlan[0].agent maxChannelTime 0.3s
attr unit s
par ResourceNetwork.hostA.wlan[0].agent authenticationTimeout 5s
attr unit s
par ResourceNetwork.hostA.wlan[0].agent associationTimeout 5s
attr unit s
par ResourceNetwork.hostA.wlan[0].agent startingTime -1s
attr unit s
par ResourceNetwork.hostA.wlan[0].agent defaultSsid "\"SSID\""
scalar ResourceNetwork.hostA.wlan[0].agent dropConfirm:count 1
attr recordingmode count
attr title "dropped confirms, count"
scalar ResourceNetwork.hostA.wlan[0].agent acceptConfirm:count 0
attr recordingmode count
attr title "accepted confirms, count"
scalar ResourceNetwork.hostA.wlan[0].agent sentRequest:count 2
attr recordingmode count
attr title "sent requests, count"
par ResourceNetwork.hostA.wlan[0].mgmt typename "\"inet.linklayer.ieee80211.mgmt.Ieee80211MgmtSta\""
par ResourceNetwork.hostA.wlan[0].mgmt interfaceTableModule "\"ResourceNetwork.hostA.interfaceTable\""
par ResourceNetwork.hostA.wlan[0].mgmt numChannels 1
par ResourceNetwork.hostA.wlan[0].mgmt mibModule "\"ResourceNetwork.hostA.wlan[0].mib\""
par ResourceNetwork.hostA.wlan[0].mgmt macModule "\"ResourceNetwork.hostA.wlan[0].mac\""
par ResourceNetwork.hostA.wlan[0].mac.dcf.channelAccess.pendingQueue typename "\"inet.linklayer.ieee80211.mac.queue.PendingQueue\""
par ResourceNetwork.hostA.wlan[0].mac.dcf.channelAccess.pendingQueue displayStringTextFormat "\"contains %p pk (%l) pushed %u\\npulled %o removed %r dropped %d\""
par ResourceNetwork.hostA.wlan[0].mac.dcf.channelAccess.pendingQueue packetCapacity 100
par ResourceNetwork.hostA.wlan[0].mac.dcf.channelAccess.pendingQueue dataCapacity -1b
attr unit b
par ResourceNetwork.hostA.wlan[0].mac.dcf.channelAccess.pendingQueue dropperClass "\"inet::queueing::PacketAtCollectionEndDropper\""
par ResourceNetwork.hostA.wlan[0].mac.dcf.channelAccess.pendingQueue comparatorClass "\"inet::ieee80211::MgmtOverDataComparator\""
par ResourceNetwork.hostA.wlan[0].mac.dcf.channelAccess.pendingQueue bufferModule "\"\""
scalar ResourceNetwork.hostA.wlan[0].mac.dcf.channelAccess.pendingQueue queueLength:last 0
attr autoWarmupFilter false
attr interpolationmode sample-hold
attr recordingmode last
attr source "warmup(atomic(constant0(packetPushEnded) + count(packetPushStarted) - count(packetPulled) - count(packetRemoved) - count(packetDropped)))"
attr title "queue length, last"
attr unit pk
scalar ResourceNetwork.hostA.wlan[0].mac.dcf.channelAccess.pendingQueue queueLength:max 1
attr autoWarmupFilter false
attr interpolationmode sample-hold
attr recordingmode max
attr source "warmup(atomic(constant0(packetPushEnded) + count(packetPushStarted) - count(packetPulled) - count(packetRemoved) - count(packetDropped)))"
attr title "queue length, max"
attr unit pk
scalar ResourceNetwork.hostA.wlan[0].mac.dcf.channelAccess.pendingQueue queueLength:timeavg 0
attr autoWarmupFilter false
attr interpolationmode sample-hold
attr recordingmode timeavg
attr source "warmup(atomic(constant0(packetPushEnded) + count(packetPushStarted) - count(packetPulled) - count(packetRemoved) - count(packetDropped)))"
attr title "queue length, timeavg"
attr unit pk
scalar ResourceNetwork.hostA.wlan[0].mac.dcf.channelAccess.pendingQueue queueBitLength:last 0
attr autoWarmupFilter false
attr interpolationmode sample-hold
attr recordingmode last
attr source "warmup(atomic(constant0(packetPushEnded) + sum(packetLength(packetPushStarted)) - sum(packetLength(packetPulled)) - sum(packetLength(packetRemoved)) - sum(packetLength(packetDropped))))"
attr title "queue bit length, last"
attr unit b
scalar ResourceNetwork.hostA.wlan[0].mac.dcf.channelAccess.pendingQueue queueBitLength:max 256
attr autoWarmupFilter false
attr interpolationmode sample-hold
attr recordingmode max
attr source "warmup(atomic(constant0(packetPushEnded) + sum(packetLength(packetPushStarted)) - sum(packetLength(packetPulled)) - sum(packetLength(packetRemoved)) - sum(packetLength(packetDropped))))"
attr title "queue bit length, max"
attr unit b
scalar ResourceNetwork.hostA.wlan[0].mac.dcf.channelAccess.pendingQueue queueBitLength:timeavg 0
attr autoWarmupFilter false
attr interpolationmode sample-hold
attr recordingmode timeavg
attr source "warmup(atomic(constant0(packetPushEnded) + sum(packetLength(packetPushStarted)) - sum(packetLength(packetPulled)) - sum(packetLength(packetRemoved)) - sum(packetLength(packetDropped))))"
attr title "queue bit length, timeavg"
attr unit b
statistic ResourceNetwork.hostA.wlan[0].mac.dcf.channelAccess.pendingQueue queueingTime:histogram
field count 1
field mean 0
field stddev nan
field min 0
field max 0
field sum 0
field sqrsum 0
attr interpolationmode none
attr recordingmode histogram
attr source queueingTime(packetPulled)
attr title "queueing times"
attr unit s
bin	-inf	0
bin	-0.5	0
bin	-0.48	0
bin	-0.46	0
bin	-0.44	0
bin	-0.42	0
bin	-0.4	0
bin	-0.38	0
bin	-0.36	0
bin	-0.34	0
bin	-0.32	0
bin	-0.3	0
bin	-0.28	0
bin	-0.26	0
bin	-0.24	0
bin	-0.22	0
bin	-0.2	0
bin	-0.18	0
bin	-0.16	0
bin	-0.14	0
bin	-0.12	0
bin	-0.1	0
bin	-0.08	0
bin	-0.06	0
bin	-0.04	0
bin	-0.02	0
bin	0	1
bin	0.02	0
bin	0.04	0
bin	0.06	0
bin	0.08	0
bin	0.1	0
bin	0.12	0
bin	0.14	0
bin	0.16	0
bin	0.18	0
bin	0.2	0
bin	0.22	0
bin	0.24	0
bin	0.26	0
bin	0.28	0
bin	0.3	0
bin	0.32	0
bin	0.34	0
bin	0.36	0
bin	0.38	0
bin	0.4	0
bin	0.42	0
bin	0.44	0
bin	0.46	0
bin	0.48	0
bin	0.5	0
scalar ResourceNetwork.hostA.wlan[0].mac.dcf.channelAccess.pendingQueue outgoingPackets:count 1
attr recordingmode count
attr source packetPulled
attr title "outgoing packets, count"
attr unit pk
scalar ResourceNetwork.hostA.wlan[0].mac.dcf.channelAccess.pendingQueue outgoingPacketLengths:sum 256
attr interpolationmode none
attr recordingmode sum
attr source packetLength(packetPulled)
attr title "outgoing packet lengths, sum"
attr unit b
statistic ResourceNetwork.hostA.wlan[0].mac.dcf.channelAccess.pendingQueue outgoingPacketLengths:histogram
field count 1
field mean 256
field stddev nan
field min 256
field max 256
field sum 256
field sqrsum 65536
attr interpolationmode none
attr recordingmode histogram
attr source packetLength(packetPulled)
attr title "outgoing packet lengths"
attr unit b
bin	-inf	0
bin	255	0
bin	256	1
bin	257	0
statistic ResourceNetwork.hostA.wlan[0].mac.dcf.channelAccess.pendingQueue flowQueueingTime:histogram
field count 0
field mean -nan
field stddev nan
field min nan
field max nan
field sum 0
field sqrsum 0
attr interpolationmode none
attr recordingmode histogram
attr source queueingTime(demuxFlow(packetPulled))
attr title "flow queueing times"
attr unit s
bin	-inf	0
bin	0	0
bin	1	0
scalar ResourceNetwork.hostA.wlan[0].mac.dcf.channelAccess.pendingQueue incomingPackets:count 1
attr recordingmode count
attr source packetPushStarted
attr title "incoming packets, count"
attr unit pk
scalar ResourceNetwork.hostA.wlan[0].mac.dcf.channelAccess.pendingQueue incomingPacketLengths:sum 256
attr interpolationmode none
attr recordingmode sum
attr source packetLength(packetPushStarted)
attr title "incoming packet lengths, sum"
attr unit b
statistic ResourceNetwork.hostA.wlan[0].mac.dcf.channelAccess.pendingQueue incomingPacketLengths:histogram
field count 1
field mean 256
field stddev nan
field min 256
field max 256
field sum 256
field sqrsum 65536
attr interpolationmode none
attr recordingmode histogram
attr source packetLength(packetPushStarted)
attr title "incoming packet lengths"
attr unit b
bin	-inf	0
bin	255	0
bin	256	1
bin	257	0
scalar ResourceNetwork.hostA.wlan[0].mac.dcf.channelAccess.pendingQueue droppedPacketsQueueOverflow:count 0
attr interpolationmode none
attr recordingmode count
attr source packetDropReasonIsQueueOverflow(packetDropped)
attr title "dropped packets: queue overflow, count"
attr unit pk
scalar ResourceNetwork.hostA.wlan[0].mac.dcf.channelAccess.pendingQueue droppedPacketLengthsQueueOverflow:sum 0
attr interpolationmode none
attr recordingmode sum
attr source packetLength(packetDropReasonIsQueueOverflow(packetDropped))
attr title "dropped packet lengths: queue overflow, sum"
attr unit b
par ResourceNetwork.hostA.wlan[0].mac.dcf.channelAccess.inProgressFrames typename "\"inet.linklayer.ieee80211.mac.queue.InProgressFrames\""
par ResourceNetwork.hostA.wlan[0].mac.dcf.channelAccess.inProgressFrames pendingQueueModule "\"^.pendingQueue\""
par ResourceNetwork.hostA.wlan[0].mac.dcf.channelAccess.inProgressFrames originatorMacDataServiceModule "\"^.^.originatorMacDataService\""
par ResourceNetwork.hostA.wlan[0].mac.dcf.channelAccess.inProgressFrames ackHandlerModule "\"^.^.ackHandler\""
statistic ResourceNetwork.hostA.wlan[0].mac.dcf.channelAccess.inProgressFrames queueingTime:histogram
field count 1
field mean 3.8e-05
field stddev nan
field min 3.8e-05
field max 3.8e-05
field sum 3.8e-05
field sqrsum 1.444e-09
attr interpolationmode none
attr recordingmode histogram
attr source queueingTime(packetDequeued)
attr title "queueing times"
bin	-inf	0
bin	0	1
bin	0.01	0
bin	0.02	0
bin	0.03	0
bin	0.04	0
bin	0.05	0
bin	0.06	0
bin	0.07	0
bin	0.08	0
bin	0.09	0
bin	0.1	0
bin	0.11	0
bin	0.12	0
bin	0.13	0
bin	0.14	0
bin	0.15	0
bin	0.16	0
bin	0.17	0
bin	0.18	0
bin	0.19	0
bin	0.2	0
bin	0.21	0
bin	0.22	0
bin	0.23	0
bin	0.24	0
bin	0.25	0
bin	0.26	0
bin	0.27	0
bin	0.28	0
bin	0.29	0
bin	0.3	0
bin	0.31	0
bin	0.32	0
bin	0.33	0
bin	0.34	0
bin	0.35	0
bin	0.36	0
bin	0.37	0
bin	0.38	0
bin	0.39	0
bin	0.4	0
bin	0.41	0
bin	0.42	0
bin	0.43	0
bin	0.44	0
bin	0.45	0
bin	0.46	0
bin	0.47	0
bin	0.48	0
bin	0.49	0
bin	0.5	0
bin	0.51	0
scalar ResourceNetwork.hostA.wlan[0].mac.dcf.channelAccess.inProgressFrames queueLength:max 1
attr autoWarmupFilter false
attr interpolationmode sample-hold
attr recordingmode max
attr source "warmup(count(packetEnqueued) - count(packetDequeued))"
attr title "queue length, max"
scalar ResourceNetwork.hostA.wlan[0].mac.dcf.channelAccess.inProgressFrames queueLength:timeavg 0.00010214068227822
attr autoWarmupFilter false
attr interpolationmode sample-hold
attr recordingmode timeavg
attr source "warmup(count(packetEnqueued) - count(packetDequeued))"
attr title "queue length, timeavg"
par ResourceNetwork.hostA.wlan[0].mac.dcf.channelAccess.contention typename "\"inet.linklayer.ieee80211.mac.contention.Contention\""
par ResourceNetwork.hostA.wlan[0].mac.dcf.channelAccess.contention initialChannelBusy true
par ResourceNetwork.hostA.wlan[0].mac.dcf.channelAccess.contention backoffOptimization true
scalar ResourceNetwork.hostA.wlan[0].mac.dcf.channelAccess.contention channelAccessGranted:count 1
attr recordingmode count
attr title "channel access granted, count"
scalar ResourceNetwork.hostA.wlan[0].mac.dcf.channelAccess.contention stateChanged:count 10
attr enum IDLE,DEFER,IFS_AND_BACKOFF
attr interpolationmode none
attr recordingmode count
attr title "contention state changed, count"
attr type enum
par ResourceNetwork.hostA.wlan[0].mac.dcf.channelAccess typename "\"inet.linklayer.ieee80211.mac.channelaccess.Dcaf\""
par ResourceNetwork.hostA.wlan[0].mac.dcf.channelAccess difsn -1
par ResourceNetwork.hostA.wlan[0].mac.dcf.channelAccess cwMin -1
par ResourceNetwork.hostA.wlan[0].mac.dcf.channelAccess cwMax -1
par ResourceNetwork.hostA.wlan[0].mac.dcf.channelAccess rxModule "\"^.^.rx\""
scalar ResourceNetwork.hostA.wlan[0].mac.dcf.channelAccess channelOwnershipChanged:count 2
attr interpolationmode sample-hold
attr recordingmode count
attr title "channel ownership, count"
par ResourceNetwork.hostA.wlan[0].mac.dcf.originatorMacDataService.fragmentationPolicy typename "\"inet.linklayer.ieee80211.mac.fragmentation.BasicFragmentationPolicy\""
par ResourceNetwork.hostA.wlan[0].mac.dcf.originatorMacDataService.fragmentationPolicy fragmentationThreshold 1500B
attr unit B
par ResourceNetwork.hostA.wlan[0].mac.dcf.originatorMacDataService typename "\"inet.linklayer.ieee80211.mac.originator.OriginatorMacDataService\""
scalar ResourceNetwork.hostA.wlan[0].mac.dcf.originatorMacDataService packetAggregated:count 0
attr recordingmode count
attr title "packets aggregated, count"
scalar ResourceNetwork.hostA.wlan[0].mac.dcf.originatorMacDataService packetFragmented:count 0
attr recordingmode count
attr title "packets fragmented, count"
par ResourceNetwork.hostA.wlan[0].mac.dcf.recipientMacDataService typename "\"inet.linklayer.ieee80211.mac.recipient.RecipientMacDataService\""
scalar ResourceNetwork.hostA.wlan[0].mac.dcf.recipientMacDataService packetDeaggregated:count 0
attr recordingmode count
attr title "packets deaggregated, count"
scalar ResourceNetwork.hostA.wlan[0].mac.dcf.recipientMacDataService packetDefragmented:count 0
attr recordingmode count
attr title "packets defragmented, count"
scalar ResourceNetwork.hostA.wlan[0].mac.dcf.recipientMacDataService packetDropDuplicateDetected:count 0
attr interpolationmode none
attr recordingmode count
attr source packetDropReasonIsDuplicateDetected(packetDropped)
attr title "packet drops: duplicate detected, count"
scalar ResourceNetwork.hostA.wlan[0].mac.dcf.recipientMacDataService packetDropDuplicateDetected:sum(packetBytes) 0
attr interpolationmode none
attr recordingmode sum(packetBytes)
attr source packetDropReasonIsDuplicateDetected(packetDropped)
attr title "packet drops: duplicate detected, sum(packetBytes)"
par ResourceNetwork.hostA.wlan[0].mac.dcf.rateSelection typename "\"inet.linklayer.ieee80211.mac.rateselection.RateSelection\""
par ResourceNetwork.hostA.wlan[0].mac.dcf.rateSelection rateControlModule "\"^.rateControl\""
par ResourceNetwork.hostA.wlan[0].mac.dcf.rateSelection multicastFrameBitrate -1bps
attr unit bps
par ResourceNetwork.hostA.wlan[0].mac.dcf.rateSelection responseAckFrameBitrate -1bps
attr unit bps
par ResourceNetwork.hostA.wlan[0].mac.dcf.rateSelection responseCtsFrameBitrate -1bps
attr unit bps
[...]
par ResourceNetwork.edgeServer.eth[0].mac duplexMode true
par ResourceNetwork.edgeServer.eth[0].mac mtu 1500B
attr unit B
par ResourceNetwork.edgeServer.eth[0].mac fcsMode "\"declared\""
attr enum declared,computed
par ResourceNetwork.edgeServer.eth[0].mac stopOperationExtraTime -1s
attr unit s
par ResourceNetwork.edgeServer.eth[0].mac stopOperationTimeout 2s
attr unit s
scalar ResourceNetwork.edgeServer.eth[0].mac "simulated time" 0.372035893558
scalar ResourceNetwork.edgeServer.eth[0].mac full-duplex 1
scalar ResourceNetwork.edgeServer.eth[0].mac "frames/sec sent" 0
scalar ResourceNetwork.edgeServer.eth[0].mac "frames/sec rcvd" 72.573642671364
scalar ResourceNetwork.edgeServer.eth[0].mac "bits/sec sent" 0
scalar ResourceNetwork.edgeServer.eth[0].mac "bits/sec rcvd" 621230.38126688
scalar ResourceNetwork.edgeServer.eth[0].mac "rx channel idle (%)" 93.741249056022
scalar ResourceNetwork.edgeServer.eth[0].mac "rx channel utilization (%)" 6.2587509439785
scalar ResourceNetwork.edgeServer.eth[0].mac rxPausePkUnits:count 0
attr interpolationmode none
attr recordingmode count
attr title "pause units received, count"
scalar ResourceNetwork.edgeServer.eth[0].mac rxPausePkUnits:sum 0
attr interpolationmode none
attr recordingmode sum
attr title "pause units received, sum"
scalar ResourceNetwork.edgeServer.eth[0].mac txPausePkUnits:count 0
attr interpolationmode none
attr recordingmode count
attr title "pause units sent, count"
scalar ResourceNetwork.edgeServer.eth[0].mac txPausePkUnits:sum 0
attr interpolationmode none
attr recordingmode sum
attr title "pause units sent, sum"
scalar ResourceNetwork.edgeServer.eth[0].mac rxPkOk:count 27
attr interpolationmode none
attr recordingmode count
attr source rxPkOk
attr title "packets received OK, count"
scalar ResourceNetwork.edgeServer.eth[0].mac rxPkOk:sum(packetBytes) 28890
attr interpolationmode none
attr recordingmode sum(packetBytes)
attr source rxPkOk
attr title "packets received OK, sum(packetBytes)"
scalar ResourceNetwork.edgeServer.eth[0].mac txPk:count 0
attr interpolationmode none
attr recordingmode count
attr source packetSentToLower
attr title "packets transmitted, count"
scalar ResourceNetwork.edgeServer.eth[0].mac txPk:sum(packetBytes) 0
attr interpolationmode none
attr recordingmode sum(packetBytes)
attr source packetSentToLower
attr title "packets transmitted, sum(packetBytes)"
scalar ResourceNetwork.edgeServer.eth[0].mac packetReceivedFromUpper:count 0
attr interpolationmode none
attr recordingmode count
attr source packetReceivedFromUpper
attr title "packet bytes from higher layer, count"
scalar ResourceNetwork.edgeServer.eth[0].mac packetReceivedFromUpper:sum(packetBytes) 0
attr interpolationmode none
attr recordingmode sum(packetBytes)
attr source packetReceivedFromUpper
attr title "packet bytes from higher layer, sum(packetBytes)"
scalar ResourceNetwork.edgeServer.eth[0].mac passedUpPk:count 27
attr interpolationmode none
attr recordingmode count
attr source packetSentToUpper
attr title "packets passed to higher layer, count"
scalar ResourceNetwork.edgeServer.eth[0].mac passedUpPk:sum(packetBytes) 28890
attr interpolationmode none
attr recordingmode sum(packetBytes)
attr source packetSentToUpper
attr title "packets passed to higher layer, sum(packetBytes)"
scalar ResourceNetwork.edgeServer.eth[0].mac packetDropIncorrectlyReceived:count 0
attr interpolationmode none
attr recordingmode count
attr source packetDropReasonIsIncorrectlyReceived(packetDropped)
attr title "packet drop: incorrectly received, count"
scalar ResourceNetwork.edgeServer.eth[0].mac packetDropIncorrectlyReceived:sum(packetBytes) 0
attr interpolationmode none
attr recordingmode sum(packetBytes)
attr source packetDropReasonIsIncorrectlyReceived(packetDropped)
attr title "packet drop: incorrectly received, sum(packetBytes)"
scalar ResourceNetwork.edgeServer.eth[0].mac packetDropInterfaceDown:count 0
attr interpolationmode none
attr recordingmode count
attr source packetDropReasonIsInterfaceDown(packetDropped)
attr title "packet drop: interface down, count"
scalar ResourceNetwork.edgeServer.eth[0].mac packetDropInterfaceDown:sum(packetBytes) 0
attr interpolationmode none
attr recordingmode sum(packetBytes)
attr source packetDropReasonIsInterfaceDown(packetDropped)
attr title "packet drop: interface down, sum(packetBytes)"
scalar ResourceNetwork.edgeServer.eth[0].mac packetDropNotAddressedToUs:count 0
attr interpolationmode none
attr recordingmode count
attr source packetDropReasonIsNotAddressedToUs(packetDropped)
attr title "packet drop: not addressed to us, count"
scalar ResourceNetwork.edgeServer.eth[0].mac packetDropNotAddressedToUs:sum(packetBytes) 0
attr interpolationmode none
attr recordingmode sum(packetBytes)
attr source packetDropReasonIsNotAddressedToUs(packetDropped)
attr title "packet drop: not addressed to us, sum(packetBytes)"
par ResourceNetwork.edgeServer.eth[0] typename "\"inet.linklayer.ethernet.EthernetInterface\""
par ResourceNetwork.edgeServer.eth[0] displayStringTextFormat "\"%a (%i)\\n%m\""
par ResourceNetwork.edgeServer.eth[0] recordPcap false
par ResourceNetwork.edgeServer.eth[0] numPcapRecorders 0
par ResourceNetwork.edgeServer.eth[0] interfaceTableModule "\"ResourceNetwork.edgeServer.interfaceTable\""
par ResourceNetwork.edgeServer.eth[0] protocol "\"ethernetmac\""
par ResourceNetwork.edgeServer.eth[0] address "\"0A-AA-00-00-00-08\""
attr mutable ""
par ResourceNetwork.edgeServer.eth[0] duplexMode true
par ResourceNetwork.edgeServer.eth[0] csmacdSupport false
par ResourceNetwork.edgeServer.eth[0] bitrate 0bps
attr unit bps
par ResourceNetwork.edgeServer.eth[0] fcsMode "\"declared\""
attr enum declared,computed
scalar ResourceNetwork.edgeServer.eth[0] packetDropInterfaceDown:count 0
attr interpolationmode none
attr recordingmode count
attr source packetDropReasonIsInterfaceDown(packetDropped)
attr title "packet drops: interface down, count"
scalar ResourceNetwork.edgeServer.eth[0] packetDropInterfaceDown:sum(packetBytes) 0
attr interpolationmode none
attr recordingmode sum(packetBytes)
attr source packetDropReasonIsInterfaceDown(packetDropped)
attr title "packet drops: interface down, sum(packetBytes)"
scalar ResourceNetwork.edgeServer.eth[0] packetDropNoCarrier:count 0
attr interpolationmode none
attr recordingmode count
attr source packetDropReasonIsNoCarrier(packetDropped)
attr title "packet drops: no carrier, count"
scalar ResourceNetwork.edgeServer.eth[0] packetDropNoCarrier:sum(packetBytes) 0
attr interpolationmode none
attr recordingmode sum(packetBytes)
attr source packetDropReasonIsNoCarrier(packetDropped)
attr title "packet drops: no carrier, sum(packetBytes)"
par ResourceNetwork.edgeServer.ipv4.transportIn.channel typename "\"ned.IdealChannel\""
par ResourceNetwork.edgeServer.ipv4.up.out[0].channel typename "\"ned.IdealChannel\""
par ResourceNetwork.edgeServer.ipv4.lp.out[2].channel typename "\"ned.IdealChannel\""
par ResourceNetwork.edgeServer.ipv4.ifIn.channel typename "\"ned.IdealChannel\""
par ResourceNetwork.edgeServer.ipv4.configurator typename "\"inet.networklayer.configurator.ipv4.Ipv4NodeConfigurator\""
par ResourceNetwork.edgeServer.ipv4.configurator interfaceTableModule "\"ResourceNetwork.edgeServer.interfaceTable\""
par ResourceNetwork.edgeServer.ipv4.configurator routingTableModule "\"ResourceNetwork.edgeServer.ipv4.routingTable\""
par ResourceNetwork.edgeServer.ipv4.configurator networkConfiguratorModule "\"configurator\""
par ResourceNetwork.edgeServer.ipv4.configurator configureRoutingTable true
par ResourceNetwork.edgeServer.ipv4.routingTable typename "\"inet.networklayer.ipv4.Ipv4RoutingTable\""
par ResourceNetwork.edgeServer.ipv4.routingTable interfaceTableModule "\"ResourceNetwork.edgeServer.interfaceTable\""
par ResourceNetwork.edgeServer.ipv4.routingTable routerId "\"auto\""
par ResourceNetwork.edgeServer.ipv4.routingTable netmaskRoutes "\"*\""
par ResourceNetwork.edgeServer.ipv4.routingTable forwarding false
par ResourceNetwork.edgeServer.ipv4.routingTable multicastForwarding false
par ResourceNetwork.edgeServer.ipv4.routingTable useAdminDist false
par ResourceNetwork.edgeServer.ipv4.routingTable routingFile "\"\""
par ResourceNetwork.edgeServer.ipv4.natTable typename "\"inet.networklayer.ipv4.Ipv4NatTable\""
par ResourceNetwork.edgeServer.ipv4.natTable networkProtocolModule "\"^.ip\""
par ResourceNetwork.edgeServer.ipv4.natTable config "<config/> at content:1"
par ResourceNetwork.edgeServer.ipv4.up typename "\"inet.common.MessageDispatcher\""
par ResourceNetwork.edgeServer.ipv4.up displayStringTextFormat "\"processed %p pk (%l)\""
par ResourceNetwork.edgeServer.ipv4.up forwardServiceRegistration true
par ResourceNetwork.edgeServer.ipv4.up forwardProtocolRegistration true
par ResourceNetwork.edgeServer.ipv4.igmp typename "\"inet.networklayer.ipv4.Igmpv2\""
par ResourceNetwork.edgeServer.ipv4.igmp interfaceTableModule "\"ResourceNetwork.edgeServer.interfaceTable\""
par ResourceNetwork.edgeServer.ipv4.igmp routingTableModule "\"ResourceNetwork.edgeServer.ipv4.routingTable\""
par ResourceNetwork.edgeServer.ipv4.igmp crcMode "\"declared\""
attr enum declared,computed
par ResourceNetwork.edgeServer.ipv4.igmp enabled true
par ResourceNetwork.edgeServer.ipv4.igmp robustnessVariable 2
par ResourceNetwork.edgeServer.ipv4.igmp queryInterval 125s
attr unit s
par ResourceNetwork.edgeServer.ipv4.igmp queryResponseInterval 10s
attr unit s
par ResourceNetwork.edgeServer.ipv4.igmp groupMembershipInterval 260s
attr unit s
par ResourceNetwork.edgeServer.ipv4.igmp otherQuerierPresentInterval 255s
attr unit s
par ResourceNetwork.edgeServer.ipv4.igmp startupQueryInterval 31.25s
attr unit s
par ResourceNetwork.edgeServer.ipv4.igmp startupQueryCount 2
par ResourceNetwork.edgeServer.ipv4.igmp lastMemberQueryInterval 1s
attr unit s
par ResourceNetwork.edgeServer.ipv4.igmp lastMemberQueryCount 2
par ResourceNetwork.edgeServer.ipv4.igmp unsolicitedReportInterval 10s
attr unit s
par ResourceNetwork.edgeServer.ipv4.icmp typename "\"inet.networklayer.ipv4.Icmp\""
par ResourceNetwork.edgeServer.ipv4.icmp interfaceTableModule "\"ResourceNetwork.edgeServer.interfaceTable\""
par ResourceNetwork.edgeServer.ipv4.icmp routingTableModule "\"ResourceNetwork.edgeServer.ipv4.routingTable\""
par ResourceNetwork.edgeServer.ipv4.icmp crcMode "\"declared\""
attr enum declared,computed
attr mutable ""
par ResourceNetwork.edgeServer.ipv4.icmp quoteLength 8B
attr mutable ""
attr unit B
par ResourceNetwork.edgeServer.ipv4.mp typename "\"inet.common.MessageDispatcher\""
par ResourceNetwork.edgeServer.ipv4.mp displayStringTextFormat "\"processed %p pk (%l)\""
par ResourceNetwork.edgeServer.ipv4.mp forwardServiceRegistration true
par ResourceNetwork.edgeServer.ipv4.mp forwardProtocolRegistration true
par ResourceNetwork.edgeServer.ipv4.ip typename "\"inet.networklayer.ipv4.Ipv4\""
par ResourceNetwork.edgeServer.ipv4.ip interfaceTableModule "\"ResourceNetwork.edgeServer.interfaceTable\""
par ResourceNetwork.edgeServer.ipv4.ip routingTableModule "\"ResourceNetwork.edgeServer.ipv4.routingTable\""
par ResourceNetwork.edgeServer.ipv4.ip arpModule "\"ResourceNetwork.edgeServer.ipv4.arp\""
par ResourceNetwork.edgeServer.ipv4.ip icmpModule "\"ResourceNetwork.edgeServer.ipv4.icmp\""
par ResourceNetwork.edgeServer.ipv4.ip crcMode "\"declared\""
attr enum declared,computed
par ResourceNetwork.edgeServer.ipv4.ip timeToLive 32
par ResourceNetwork.edgeServer.ipv4.ip multicastTimeToLive 32
par ResourceNetwork.edgeServer.ipv4.ip fragmentTimeout 60s
attr unit s
par ResourceNetwork.edgeServer.ipv4.ip limitedBroadcast false
par ResourceNetwork.edgeServer.ipv4.ip directBroadcastInterfaces "\"\""
scalar ResourceNetwork.edgeServer.ipv4.ip packetDropAddressResolutionFailed:count 0
attr interpolationmode none
attr recordingmode count
attr source packetDropReasonIsAddressResolutionFailed(packetDropped)
attr title "packet drop: address resolution failed, count"
scalar ResourceNetwork.edgeServer.ipv4.ip packetDropAddressResolutionFailed:sum(packetBytes) 0
attr interpolationmode none
attr recordingmode sum(packetBytes)
attr source packetDropReasonIsAddressResolutionFailed(packetDropped)
attr title "packet drop: address resolution failed, sum(packetBytes)"
scalar ResourceNetwork.edgeServer.ipv4.ip packetDropHopLimitReached:count 0
attr interpolationmode none
attr recordingmode count
attr source packetDropReasonIsHopLimitReached(packetDropped)
attr title "packet drop: hop limit reached, count"
scalar ResourceNetwork.edgeServer.ipv4.ip packetDropHopLimitReached:sum(packetBytes) 0
attr interpolationmode none
attr recordingmode sum(packetBytes)
attr source packetDropReasonIsHopLimitReached(packetDropped)
attr title "packet drop: hop limit reached, sum(packetBytes)"
scalar ResourceNetwork.edgeServer.ipv4.ip packetDropForwardingDisabled:count 0
attr interpolationmode none
attr recordingmode count
attr source packetDropReasonIsForwardingDisabled(packetDropped)
attr title "packet drop: forwarding disabled, count"
scalar ResourceNetwork.edgeServer.ipv4.ip packetDropForwardingDisabled:sum(packetBytes) 0
attr interpolationmode none
attr recordingmode sum(packetBytes)
attr source packetDropReasonIsForwardingDisabled(packetDropped)
attr title "packet drop: forwarding disabled, sum(packetBytes)"
scalar ResourceNetwork.edgeServer.ipv4.ip packetDropNoInterfaceFound:count 0
attr interpolationmode none
attr recordingmode count
attr source packetDropReasonIsNoInterfaceFound(packetDropped)
attr title "packet drop: no interface found, count"
scalar ResourceNetwork.edgeServer.ipv4.ip packetDropNoInterfaceFound:sum(packetBytes) 0
attr interpolationmode none
attr recordingmode sum(packetBytes)
attr source packetDropReasonIsNoInterfaceFound(packetDropped)
attr title "packet drop: no interface found, sum(packetBytes)"
scalar ResourceNetwork.edgeServer.ipv4.ip packetDropNoRouteFound:count 0
attr interpolationmode none
attr recordingmode count
attr source packetDropReasonIsNoRouteFound(packetDropped)
attr title "packet drop: no route found, count"
scalar ResourceNetwork.edgeServer.ipv4.ip packetDropNoRouteFound:sum(packetBytes) 0
attr interpolationmode none
attr recordingmode sum(packetBytes)
attr source packetDropReasonIsNoRouteFound(packetDropped)
attr title "packet drop: no route found, sum(packetBytes)"
scalar ResourceNetwork.edgeServer.ipv4.ip packetDropUndefined:count 0
attr interpolationmode none
attr recordingmode count
attr source packetDropReasonIsUndefined(packetDropped)
attr title "packet drop: undefined, count"
scalar ResourceNetwork.edgeServer.ipv4.ip packetDropUndefined:sum(packetBytes) 0
attr interpolationmode none
attr recordingmode sum(packetBytes)
attr source packetDropReasonIsUndefined(packetDropped)
attr title "packet drop: undefined, sum(packetBytes)"
par ResourceNetwork.edgeServer.ipv4.arp typename "\"inet.networklayer.arp.ipv4.GlobalArp\""
par ResourceNetwork.edgeServer.ipv4.arp interfaceTableModule "\"ResourceNetwork.edgeServer.interfaceTable\""
par ResourceNetwork.edgeServer.ipv4.arp addressType "\"ipv4\""
attr enum ipv4,ipv6,mac,moduleid,modulepath
par ResourceNetwork.edgeServer.ipv4.lp typename "\"inet.common.MessageDispatcher\""
par ResourceNetwork.edgeServer.ipv4.lp displayStringTextFormat "\"processed %p pk (%l)\""
par ResourceNetwork.edgeServer.ipv4.lp forwardServiceRegistration true
par ResourceNetwork.edgeServer.ipv4.lp forwardProtocolRegistration true
par ResourceNetwork.edgeServer.ipv4 typename "\"inet.networklayer.ipv4.Ipv4NetworkLayer\""
par ResourceNetwork.edgeServer.ipv4 forwarding false
par ResourceNetwork.edgeServer.ipv4 multicastForwarding false
par ResourceNetwork.edgeServer.ipv4 interfaceTableModule "\"ResourceNetwork.edgeServer.interfaceTable\""
par ResourceNetwork.edgeServer.ipv4 displayStringTextFormat "\"%i\""
par ResourceNetwork.edgeServer.nl typename "\"inet.common.MessageDispatcher\""
par ResourceNetwork.edgeServer.nl displayStringTextFormat "\"processed %p pk (%l)\""
par ResourceNetwork.edgeServer.nl forwardServiceRegistration true
par ResourceNetwork.edgeServer.nl forwardProtocolRegistration true
par ResourceNetwork.edgeServer.udp typename "\"inet.transportlayer.udp.Udp\""
par ResourceNetwork.edgeServer.udp interfaceTableModule "\"ResourceNetwork.edgeServer.interfaceTable\""
par ResourceNetwork.edgeServer.udp icmpModule "\"^.ipv4.icmp\""
par ResourceNetwork.edgeServer.udp icmpv6Module "\"^.ipv6.icmpv6\""
par ResourceNetwork.edgeServer.udp crcMode "\"declared\""
attr enum disabled,declared,computed
par ResourceNetwork.edgeServer.udp defaultMulticastLoop true
scalar ResourceNetwork.edgeServer.udp packetReceived:count 27
attr interpolationmode none
attr recordingmode count
attr source packetReceived
attr title "packets received, count"
scalar ResourceNetwork.edgeServer.udp packetReceived:sum(packetBytes) 27864
attr interpolationmode none
attr recordingmode sum(packetBytes)
attr source packetReceived
attr title "packets received, sum(packetBytes)"
scalar ResourceNetwork.edgeServer.udp packetSent:count 0
attr interpolationmode none
attr recordingmode count
attr source packetSent
attr title "packets sent, count"
scalar ResourceNetwork.edgeServer.udp packetSent:sum(packetBytes) 0
attr interpolationmode none
attr recordingmode sum(packetBytes)
attr source packetSent
attr title "packets sent, sum(packetBytes)"
scalar ResourceNetwork.edgeServer.udp passedUpPk:count 27
attr interpolationmode none
attr recordingmode count
attr source packetSentToUpper
attr title "packets passed up, count"
scalar ResourceNetwork.edgeServer.udp droppedPkWrongPort:count 0
attr interpolationmode none
attr recordingmode count
attr source packetDropReasonIsNoPortFound(packetDropped)
attr title "packets dropped (wrong port), count"
scalar ResourceNetwork.edgeServer.udp droppedPkBadChecksum:count 0
attr interpolationmode none
attr recordingmode count
attr source packetDropReasonIsIncorrectlyReceived(packetDropped)
attr title "packets dropped (checksum error), count"
par ResourceNetwork.edgeServer.tn typename "\"inet.common.MessageDispatcher\""
par ResourceNetwork.edgeServer.tn displayStringTextFormat "\"processed %p pk (%l)\""
par ResourceNetwork.edgeServer.tn forwardServiceRegistration true
par ResourceNetwork.edgeServer.tn forwardProtocolRegistration true
par ResourceNetwork.edgeServer.app[0] typename "\"myprojectandtutorial.applications.ResourceAllocatorApp\""
par ResourceNetwork.edgeServer.app[0] localPort 5000
par ResourceNetwork.edgeServer.at typename "\"inet.common.MessageDispatcher\""
par ResourceNetwork.edgeServer.at displayStringTextFormat "\"processed %p pk (%l)\""
par ResourceNetwork.edgeServer.at forwardServiceRegistration true
par ResourceNetwork.edgeServer.at forwardProtocolRegistration true
par ResourceNetwork.edgeServer typename "\"myprojectandtutorial.devices.EdgeServer\""
par ResourceNetwork.edgeServer hasStatus false
par ResourceNetwork.edgeServer osgModel "\"\""
par ResourceNetwork.edgeServer osgModelColor "\"\""
par ResourceNetwork.edgeServer canvasImage "\"\""
par ResourceNetwork.edgeServer canvasImageColor "\"\""
par ResourceNetwork.edgeServer recordPcap false
par ResourceNetwork.edgeServer numPcapRecorders 0
par ResourceNetwork.edgeServer numLoInterfaces 1
par ResourceNetwork.edgeServer numWlanInterfaces 0
par ResourceNetwork.edgeServer numEthInterfaces 0
par ResourceNetwork.edgeServer numPppInterfaces 0
par ResourceNetwork.edgeServer numTunInterfaces 0
par ResourceNetwork.edgeServer numVirtInterfaces 0
par ResourceNetwork.edgeServer fcsMode "\"declared\""
attr enum declared,computed
par ResourceNetwork.edgeServer hasIpv4 true
par ResourceNetwork.edgeServer hasIpv6 false
par ResourceNetwork.edgeServer hasGn false
par ResourceNetwork.edgeServer forwarding false
par ResourceNetwork.edgeServer multicastForwarding false
par ResourceNetwork.edgeServer hasUdp true
par ResourceNetwork.edgeServer hasTcp false
par ResourceNetwork.edgeServer hasSctp false
par ResourceNetwork.edgeServer numApps 1
par ResourceNetwork typename "\"myprojectandtutorial.simulations.ResourceNetwork\""

