file 1142409 1772137918                                         
version 3
run General-0-20260226-20:28:34-2074
attr configname General
attr datetime 20260226-20:28:34
attr datetimef 20260226-202834
attr experiment General
attr inifile omnetpp.ini
attr iterationvars ""
attr iterationvarsd ""
attr iterationvarsf ""
attr measurement ""
attr network ResourceNetwork
attr processid 2074
attr repetition 0
attr replication #0
attr resultdir results
attr runnumber 0
attr seedset 0
config image-path ../../../default_workspace/inet-4.5.4/images
config description "Simple sim where two nodes communicate wirelessly."
config network ResourceNetwork
config sim-time-limit 60s
config *.*.ipv4.arp.typename GlobalArp
config *.mdAutonomousVehicle[*].numApps 1
config *.mdAutonomousVehicle[*].app[0].typename TrafficGenerator
config *.mdAutonomousVehicle[*].app[0].destAddresses "\"edgeServer\""
config *.mdAutonomousVehicle[*].app[0].destPort 5000
config *.mdAutonomousVehicle[*].app[0].messageLength 1024B
config *.mdAutonomousVehicle[*].app[0].sendInterval exponential(0.000032s)
config *.mdAutonomousVehicle[*].app[0].packetName "\"TaskData\""
config *.mdAutonomousVehicle[*].app[0].minRequiredCPUCycles 300
config *.mdAutonomousVehicle[*].app[0].maxRequiredCPUCycles 500
config *.mdAutonomousVehicle[*].app[0].minDeadlineLatency 0.5
config *.mdAutonomousVehicle[*].app[0].maxDeadlineLatency 20
config *.edgeServer*.numApps 1
config *.edgeServer*.app[0].typename ResourceAllocatorApp
config *.edgeServer*.app[0].localPort 5000
config *.host*.wlan[0].typename AckingWirelessInterface
config *.host*.wlan[0].mac.useAck false
config *.host*.wlan[0].mac.fullDuplex false
config *.host*.wlan[0].radio.transmitter.communicationRange 500m
config *.host*.wlan[0].mac.headerLength 23B
config *.mdMobilePhone.wlan[0].typename AckingWirelessInterface
config *.mdMobilePhone.wlan[0].mac.useAck false
config *.mdMobilePhone.wlan[0].mac.fullDuplex false
config *.mdMobilePhone.wlan[0].radio.transmitter.communicationRange 500m
config *.mdMobilePhone.wlan[0].mac.headerLength 23B
config *.mdAutonomousVehicle[*].wlan[0].typename AckingWirelessInterface
config *.mdAutonomousVehicle[*].wlan[0].mac.useAck false
config *.mdAutonomousVehicle[*].wlan[0].mac.fullDuplex false
config *.mdAutonomousVehicle[*].wlan[0].radio.transmitter.communicationRange 500m
config *.mdAutonomousVehicle[*].wlan[0].mac.headerLength 23B
config *.baseStation.forwarding true
config *.baseStation*.wlan[0].typename AckingWirelessInterface
config *.baseStation*.wlan[0].mac.useAck false
config *.baseStation*.wlan[0].mac.fullDuplex false
config *.baseStation*.wlan[0].radio.transmitter.communicationRange 500m
config *.baseStation*.wlan[0].mac.headerLength 23B
config *.host*.**.bitrate 1Mbps
config *.baseStation*.wlan[0].bitrate 1Mbps
config *.mdMobilePhone.wlan[0].bitrate 1Mbps
config *.mdAutonomousVehicle*.wlan[0].bitrate 2500Mbps
config **.radio.displayCommunicationRange true
config *.visualizer.mediumVisualizer.displaySignals true
config *.visualizer.physicalLinkVisualizer.displayLinks true
config *.visualizer.physicalLinkVisualizer.packetFilter "\"TaskData\""
config *.visualizer.mobilityVisualizer.displayVelocities true
config *.visualizer.mobilityVisualizer.displayMovementTrails true
config *.hostA.mobility.typename LinearMobility
config *.hostA.mobility.speed 12mps
config *.hostA.mobility.initialMovementHeading 200deg

vector 0 ResourceNetwork.hostA.lo[0].lo rcvdPkFromHl:vector(packetBytes) ETV
attr interpolationmode none
attr recordingmode vector(packetBytes)
attr source packetReceivedFromUpper
attr title "packets received from higher layer, packetBytes"
vector 1 ResourceNetwork.hostA.lo[0].lo passedUpPk:vector(packetBytes) ETV
attr interpolationmode none
attr recordingmode vector(packetBytes)
attr source packetSentToUpper
attr title "packets passed to higher layer, packetBytes"
vector 2 ResourceNetwork.hostA.lo[0] packetDropInterfaceDown:vector(packetBytes) ETV
attr interpolationmode none
attr recordingmode vector(packetBytes)
attr source packetDropReasonIsInterfaceDown(packetDropped)
attr title "packet drops: interface down, packetBytes"
vector 3 ResourceNetwork.hostA.lo[0] packetDropNoCarrier:vector(packetBytes) ETV
attr interpolationmode none
attr recordingmode vector(packetBytes)
attr source packetDropReasonIsNoCarrier(packetDropped)
attr title "packet drops: no carrier, packetBytes"
vector 4 ResourceNetwork.hostA.wlan[0].queue queueLength:vector ETV
attr autoWarmupFilter false
attr interpolationmode sample-hold
attr recordingmode vector
attr source "warmup(atomic(constant0(packetPushEnded) + count(packetPushStarted) - count(packetPulled) - count(packetRemoved) - count(packetDropped)))"
attr title "queue length"
attr unit pk
vector 5 ResourceNetwork.hostA.wlan[0].queue queueBitLength:vector ETV
attr autoWarmupFilter false
attr interpolationmode sample-hold
attr recordingmode vector
attr source "warmup(atomic(constant0(packetPushEnded) + sum(packetLength(packetPushStarted)) - sum(packetLength(packetPulled)) - sum(packetLength(packetRemoved)) - sum(packetLength(packetDropped))))"
attr title "queue bit length"
attr unit b
vector 6 ResourceNetwork.hostA.wlan[0].queue queueingTime:vector ETV
attr interpolationmode none
attr recordingmode vector
attr source queueingTime(packetPulled)
attr title "queueing times"
attr unit s
vector 7 ResourceNetwork.hostA.wlan[0].queue incomingPacketLengths:vector ETV
attr interpolationmode none
attr recordingmode vector
attr source packetLength(packetPushStarted)
attr title "incoming packet lengths"
attr unit b
vector 8 ResourceNetwork.hostA.wlan[0].queue incomingDataRate:vector ETV
attr interpolationmode linear
attr recordingmode vector
attr source throughput(packetPushStarted)
attr title "incoming datarate"
attr unit bps
vector 9 ResourceNetwork.hostA.wlan[0].queue outgoingPacketLengths:vector ETV
attr interpolationmode none
attr recordingmode vector
attr source packetLength(packetPulled)
attr title "outgoing packet lengths"
attr unit b
vector 10 ResourceNetwork.hostA.wlan[0].queue outgoingDataRate:vector ETV
attr interpolationmode linear
attr recordingmode vector
attr source throughput(packetPulled)
attr title "outgoing datarate"
attr unit bps
vector 11 ResourceNetwork.hostA.wlan[0].queue droppedPacketLengthsQueueOverflow:vector ETV
attr interpolationmode none
attr recordingmode vector
attr source packetLength(packetDropReasonIsQueueOverflow(packetDropped))
attr title "dropped packet lengths: queue overflow"
attr unit b
vector 12 ResourceNetwork.hostA.wlan[0].queue flowQueueingTime:vector ETV
attr interpolationmode none
attr recordingmode vector
attr source queueingTime(demuxFlow(packetPulled))
attr title "flow queueing times"
attr unit s
vector 13 ResourceNetwork.hostA.wlan[0].queue flowIncomingDataRate:vector ETV
attr interpolationmode linear
attr recordingmode vector
attr source throughput(flowPacketLength(demuxFlow(packetPushStarted)))
attr title "flow specific incoming data rate"
attr unit bps
vector 14 ResourceNetwork.hostA.wlan[0].queue flowOutgoingDataRate:vector ETV
attr interpolationmode linear
attr recordingmode vector
attr source throughput(flowPacketLength(demuxFlow(packetPulled)))
attr title "flow specific outgoing data rate"
attr unit bps
vector 15 ResourceNetwork.hostA.wlan[0].mac passedUpPk:vector(packetBytes) ETV
attr interpolationmode none
attr recordingmode vector(packetBytes)
attr source packetSentToUpper
attr title "packets passed to higher layer, packetBytes"
vector 16 ResourceNetwork.hostA.wlan[0].mac sentDownPk:vector(packetBytes) ETV
attr interpolationmode none
attr recordingmode vector(packetBytes)
attr source packetSentToLower
attr title "packets sent to lower layer, packetBytes"
vector 17 ResourceNetwork.hostA.wlan[0].mac rcvdPkFromHl:vector(packetBytes) ETV
attr interpolationmode none
attr recordingmode vector(packetBytes)
attr source packetReceivedFromUpper
attr title "packets received from higher layer, packetBytes"
vector 18 ResourceNetwork.hostA.wlan[0].mac rcvdPkFromLl:vector(packetBytes) ETV
attr interpolationmode none
attr recordingmode vector(packetBytes)
attr source packetReceivedFromLower
attr title "packets received from lower layer, packetBytes"
vector 19 ResourceNetwork.hostA.wlan[0].mac packetDropIncorrectlyReceived:vector(packetBytes) ETV
attr interpolationmode none
attr recordingmode vector(packetBytes)
attr source packetDropReasonIsIncorrectlyReceived(packetDropped)
attr title "packet drop: incorrectly received, packetBytes"
vector 20 ResourceNetwork.hostA.wlan[0].mac packetDropInterfaceDown:vector(packetBytes) ETV
attr interpolationmode none
attr recordingmode vector(packetBytes)
attr source packetDropReasonIsInterfaceDown(packetDropped)
attr title "packet drop: interface down, packetBytes"
vector 21 ResourceNetwork.hostA.wlan[0].mac packetDropNotAddressedToUs:vector(packetBytes) ETV
attr interpolationmode none
attr recordingmode vector(packetBytes)
attr source packetDropReasonIsNotAddressedToUs(packetDropped)
attr title "packet drop: not addressed to us, packetBytes"
vector 22 ResourceNetwork.hostA.wlan[0].radio radioMode:vector ETV
attr interpolationmode sample-hold
attr recordingmode vector
attr source radioModeChanged
attr title "Radio mode"
vector 23 ResourceNetwork.hostA.wlan[0].radio receptionState:vector ETV
attr interpolationmode sample-hold
attr recordingmode vector
attr source receptionStateChanged
attr title "Radio reception state"
vector 24 ResourceNetwork.hostA.wlan[0].radio transmissionState:vector ETV
attr interpolationmode sample-hold
attr recordingmode vector
attr source transmissionStateChanged
attr title "Radio transmission state"
vector 25 ResourceNetwork.hostA.wlan[0] packetDropInterfaceDown:vector(packetBytes) ETV
attr interpolationmode none
attr recordingmode vector(packetBytes)
attr source packetDropReasonIsInterfaceDown(packetDropped)
attr title "packet drops: interface down, packetBytes"
vector 26 ResourceNetwork.hostA.wlan[0] packetDropNoCarrier:vector(packetBytes) ETV
attr interpolationmode none
attr recordingmode vector(packetBytes)
attr source packetDropReasonIsNoCarrier(packetDropped)
attr title "packet drops: no carrier, packetBytes"
vector 27 ResourceNetwork.hostA.ipv4.ip packetDropAddressResolutionFailed:vector(packetBytes) ETV
attr interpolationmode none
attr recordingmode vector(packetBytes)
attr source packetDropReasonIsAddressResolutionFailed(packetDropped)
attr title "packet drop: address resolution failed, packetBytes"
vector 28 ResourceNetwork.hostA.ipv4.ip packetDropHopLimitReached:vector(packetBytes) ETV
attr interpolationmode none
attr recordingmode vector(packetBytes)
attr source packetDropReasonIsHopLimitReached(packetDropped)
attr title "packet drop: hop limit reached, packetBytes"
vector 29 ResourceNetwork.hostA.ipv4.ip packetDropForwardingDisabled:vector(packetBytes) ETV
attr interpolationmode none
attr recordingmode vector(packetBytes)
attr source packetDropReasonIsForwardingDisabled(packetDropped)
attr title "packet drop: forwarding disabled, packetBytes"
vector 30 ResourceNetwork.hostA.ipv4.ip packetDropNoInterfaceFound:vector(packetBytes) ETV
attr interpolationmode none
attr recordingmode vector(packetBytes)
attr source packetDropReasonIsNoInterfaceFound(packetDropped)
attr title "packet drop: no interface found, packetBytes"
vector 31 ResourceNetwork.hostA.ipv4.ip packetDropNoRouteFound:vector(packetBytes) ETV
attr interpolationmode none
attr recordingmode vector(packetBytes)
attr source packetDropReasonIsNoRouteFound(packetDropped)
attr title "packet drop: no route found, packetBytes"
vector 32 ResourceNetwork.hostA.ipv4.ip packetDropUndefined:vector(packetBytes) ETV
attr interpolationmode none
attr recordingmode vector(packetBytes)
attr source packetDropReasonIsUndefined(packetDropped)
attr title "packet drop: undefined, packetBytes"
vector 33 ResourceNetwork.hostA.udp packetSent:vector(packetBytes) ETV
attr interpolationmode none
attr recordingmode vector(packetBytes)
attr source packetSent
attr title "packets sent, packetBytes"
vector 34 ResourceNetwork.hostA.udp packetReceived:vector(packetBytes) ETV
attr interpolationmode none
attr recordingmode vector(packetBytes)
attr source packetReceived
attr title "packets received, packetBytes"
vector 35 ResourceNetwork.hostA.udp passedUpPk:vector(count) ETV
attr interpolationmode none
attr recordingmode vector(count)
attr source packetSentToUpper
attr title "packets passed up, count"
vector 36 ResourceNetwork.hostA.udp droppedPkWrongPort:vector(count) ETV
attr interpolationmode none
attr recordingmode vector(count)
attr source packetDropReasonIsNoPortFound(packetDropped)
attr title "packets dropped (wrong port), count"
vector 37 ResourceNetwork.hostA.udp droppedPkBadChecksum:vector(count) ETV
attr interpolationmode none
attr recordingmode vector(count)
attr source packetDropReasonIsIncorrectlyReceived(packetDropped)
attr title "packets dropped (checksum error), count"
vector 38 ResourceNetwork.mdMobilePhone.lo[0].lo rcvdPkFromHl:vector(packetBytes) ETV
attr interpolationmode none
attr recordingmode vector(packetBytes)
attr source packetReceivedFromUpper
attr title "packets received from higher layer, packetBytes"
vector 39 ResourceNetwork.mdMobilePhone.lo[0].lo passedUpPk:vector(packetBytes) ETV
attr interpolationmode none
attr recordingmode vector(packetBytes)
attr source packetSentToUpper
attr title "packets passed to higher layer, packetBytes"
vector 40 ResourceNetwork.mdMobilePhone.lo[0] packetDropInterfaceDown:vector(packetBytes) ETV
attr interpolationmode none
attr recordingmode vector(packetBytes)
attr source packetDropReasonIsInterfaceDown(packetDropped)
attr title "packet drops: interface down, packetBytes"
vector 41 ResourceNetwork.mdMobilePhone.lo[0] packetDropNoCarrier:vector(packetBytes) ETV
attr interpolationmode none
attr recordingmode vector(packetBytes)
attr source packetDropReasonIsNoCarrier(packetDropped)
attr title "packet drops: no carrier, packetBytes"
vector 42 ResourceNetwork.mdMobilePhone.wlan[0].queue queueLength:vector ETV
attr autoWarmupFilter false
attr interpolationmode sample-hold
attr recordingmode vector
attr source "warmup(atomic(constant0(packetPushEnded) + count(packetPushStarted) - count(packetPulled) - count(packetRemoved) - count(packetDropped)))"
attr title "queue length"
attr unit pk
vector 43 ResourceNetwork.mdMobilePhone.wlan[0].queue queueBitLength:vector ETV
attr autoWarmupFilter false
attr interpolationmode sample-hold
attr recordingmode vector
attr source "warmup(atomic(constant0(packetPushEnded) + sum(packetLength(packetPushStarted)) - sum(packetLength(packetPulled)) - sum(packetLength(packetRemoved)) - sum(packetLength(packetDropped))))"
attr title "queue bit length"
attr unit b
vector 44 ResourceNetwork.mdMobilePhone.wlan[0].queue queueingTime:vector ETV
attr interpolationmode none
attr recordingmode vector
attr source queueingTime(packetPulled)
attr title "queueing times"
attr unit s
vector 45 ResourceNetwork.mdMobilePhone.wlan[0].queue incomingPacketLengths:vector ETV
attr interpolationmode none
attr recordingmode vector
attr source packetLength(packetPushStarted)
attr title "incoming packet lengths"
attr unit b
vector 46 ResourceNetwork.mdMobilePhone.wlan[0].queue incomingDataRate:vector ETV
attr interpolationmode linear
attr recordingmode vector
attr source throughput(packetPushStarted)
attr title "incoming datarate"
attr unit bps
vector 47 ResourceNetwork.mdMobilePhone.wlan[0].queue outgoingPacketLengths:vector ETV
attr interpolationmode none
attr recordingmode vector
attr source packetLength(packetPulled)
attr title "outgoing packet lengths"
attr unit b
vector 48 ResourceNetwork.mdMobilePhone.wlan[0].queue outgoingDataRate:vector ETV
attr interpolationmode linear
attr recordingmode vector
attr source throughput(packetPulled)
attr title "outgoing datarate"
attr unit bps
vector 49 ResourceNetwork.mdMobilePhone.wlan[0].queue droppedPacketLengthsQueueOverflow:vector ETV
attr interpolationmode none
attr recordingmode vector
attr source packetLength(packetDropReasonIsQueueOverflow(packetDropped))
attr title "dropped packet lengths: queue overflow"
attr unit b
vector 50 ResourceNetwork.mdMobilePhone.wlan[0].queue flowQueueingTime:vector ETV
attr interpolationmode none
attr recordingmode vector
attr source queueingTime(demuxFlow(packetPulled))
attr title "flow queueing times"
attr unit s
vector 51 ResourceNetwork.mdMobilePhone.wlan[0].queue flowIncomingDataRate:vector ETV
attr interpolationmode linear
attr recordingmode vector
attr source throughput(flowPacketLength(demuxFlow(packetPushStarted)))
attr title "flow specific incoming data rate"
attr unit bps
vector 52 ResourceNetwork.mdMobilePhone.wlan[0].queue flowOutgoingDataRate:vector ETV
attr interpolationmode linear
attr recordingmode vector
attr source throughput(flowPacketLength(demuxFlow(packetPulled)))
attr title "flow specific outgoing data rate"
attr unit bps
vector 53 ResourceNetwork.mdMobilePhone.wlan[0].mac passedUpPk:vector(packetBytes) ETV
attr interpolationmode none
attr recordingmode vector(packetBytes)
attr source packetSentToUpper
attr title "packets passed to higher layer, packetBytes"
vector 54 ResourceNetwork.mdMobilePhone.wlan[0].mac sentDownPk:vector(packetBytes) ETV
attr interpolationmode none
attr recordingmode vector(packetBytes)
attr source packetSentToLower
attr title "packets sent to lower layer, packetBytes"
vector 55 ResourceNetwork.mdMobilePhone.wlan[0].mac rcvdPkFromHl:vector(packetBytes) ETV
attr interpolationmode none
attr recordingmode vector(packetBytes)
attr source packetReceivedFromUpper
attr title "packets received from higher layer, packetBytes"
vector 56 ResourceNetwork.mdMobilePhone.wlan[0].mac rcvdPkFromLl:vector(packetBytes) ETV
attr interpolationmode none
attr recordingmode vector(packetBytes)
attr source packetReceivedFromLower
attr title "packets received from lower layer, packetBytes"
vector 57 ResourceNetwork.mdMobilePhone.wlan[0].mac packetDropIncorrectlyReceived:vector(packetBytes) ETV
attr interpolationmode none
attr recordingmode vector(packetBytes)
attr source packetDropReasonIsIncorrectlyReceived(packetDropped)
attr title "packet drop: incorrectly received, packetBytes"
vector 58 ResourceNetwork.mdMobilePhone.wlan[0].mac packetDropInterfaceDown:vector(packetBytes) ETV
attr interpolationmode none
attr recordingmode vector(packetBytes)
attr source packetDropReasonIsInterfaceDown(packetDropped)
attr title "packet drop: interface down, packetBytes"
vector 59 ResourceNetwork.mdMobilePhone.wlan[0].mac packetDropNotAddressedToUs:vector(packetBytes) ETV
attr interpolationmode none
attr recordingmode vector(packetBytes)
attr source packetDropReasonIsNotAddressedToUs(packetDropped)
attr title "packet drop: not addressed to us, packetBytes"
vector 60 ResourceNetwork.mdMobilePhone.wlan[0].radio radioMode:vector ETV
attr interpolationmode sample-hold
attr recordingmode vector
attr source radioModeChanged
attr title "Radio mode"
vector 61 ResourceNetwork.mdMobilePhone.wlan[0].radio receptionState:vector ETV
attr interpolationmode sample-hold
attr recordingmode vector
attr source receptionStateChanged
attr title "Radio reception state"
vector 62 ResourceNetwork.mdMobilePhone.wlan[0].radio transmissionState:vector ETV
attr interpolationmode sample-hold
attr recordingmode vector
attr source transmissionStateChanged
attr title "Radio transmission state"
vector 63 ResourceNetwork.mdMobilePhone.wlan[0] packetDropInterfaceDown:vector(packetBytes) ETV
attr interpolationmode none
attr recordingmode vector(packetBytes)
attr source packetDropReasonIsInterfaceDown(packetDropped)
attr title "packet drops: interface down, packetBytes"
vector 64 ResourceNetwork.mdMobilePhone.wlan[0] packetDropNoCarrier:vector(packetBytes) ETV
attr interpolationmode none
attr recordingmode vector(packetBytes)
attr source packetDropReasonIsNoCarrier(packetDropped)
attr title "packet drops: no carrier, packetBytes"
vector 65 ResourceNetwork.mdMobilePhone.ipv4.ip packetDropAddressResolutionFailed:vector(packetBytes) ETV
attr interpolationmode none
attr recordingmode vector(packetBytes)
attr source packetDropReasonIsAddressResolutionFailed(packetDropped)
attr title "packet drop: address resolution failed, packetBytes"
vector 66 ResourceNetwork.mdMobilePhone.ipv4.ip packetDropHopLimitReached:vector(packetBytes) ETV
attr interpolationmode none
attr recordingmode vector(packetBytes)
attr source packetDropReasonIsHopLimitReached(packetDropped)
attr title "packet drop: hop limit reached, packetBytes"
vector 67 ResourceNetwork.mdMobilePhone.ipv4.ip packetDropForwardingDisabled:vector(packetBytes) ETV
attr interpolationmode none
attr recordingmode vector(packetBytes)
attr source packetDropReasonIsForwardingDisabled(packetDropped)
attr title "packet drop: forwarding disabled, packetBytes"
vector 68 ResourceNetwork.mdMobilePhone.ipv4.ip packetDropNoInterfaceFound:vector(packetBytes) ETV
attr interpolationmode none
attr recordingmode vector(packetBytes)
attr source packetDropReasonIsNoInterfaceFound(packetDropped)
attr title "packet drop: no interface found, packetBytes"
vector 69 ResourceNetwork.mdMobilePhone.ipv4.ip packetDropNoRouteFound:vector(packetBytes) ETV
attr interpolationmode none
attr recordingmode vector(packetBytes)
attr source packetDropReasonIsNoRouteFound(packetDropped)
attr title "packet drop: no route found, packetBytes"
vector 70 ResourceNetwork.mdMobilePhone.ipv4.ip packetDropUndefined:vector(packetBytes) ETV
attr interpolationmode none
attr recordingmode vector(packetBytes)
attr source packetDropReasonIsUndefined(packetDropped)
attr title "packet drop: undefined, packetBytes"
vector 71 ResourceNetwork.mdMobilePhone.udp packetSent:vector(packetBytes) ETV
attr interpolationmode none
attr recordingmode vector(packetBytes)
attr source packetSent
attr title "packets sent, packetBytes"
vector 72 ResourceNetwork.mdMobilePhone.udp packetReceived:vector(packetBytes) ETV
attr interpolationmode none
attr recordingmode vector(packetBytes)
attr source packetReceived
attr title "packets received, packetBytes"
vector 73 ResourceNetwork.mdMobilePhone.udp passedUpPk:vector(count) ETV
attr interpolationmode none
attr recordingmode vector(count)
attr source packetSentToUpper
attr title "packets passed up, count"
vector 74 ResourceNetwork.mdMobilePhone.udp droppedPkWrongPort:vector(count) ETV
attr interpolationmode none
attr recordingmode vector(count)
attr source packetDropReasonIsNoPortFound(packetDropped)
attr title "packets dropped (wrong port), count"
vector 75 ResourceNetwork.mdMobilePhone.udp droppedPkBadChecksum:vector(count) ETV
attr interpolationmode none
attr recordingmode vector(count)
attr source packetDropReasonIsIncorrectlyReceived(packetDropped)
attr title "packets dropped (checksum error), count"
vector 76 ResourceNetwork.mdAutonomousVehicle[0].lo[0].lo rcvdPkFromHl:vector(packetBytes) ETV
attr interpolationmode none
attr recordingmode vector(packetBytes)
attr source packetReceivedFromUpper
attr title "packets received from higher layer, packetBytes"
vector 77 ResourceNetwork.mdAutonomousVehicle[0].lo[0].lo passedUpPk:vector(packetBytes) ETV
attr interpolationmode none
attr recordingmode vector(packetBytes)
attr source packetSentToUpper
attr title "packets passed to higher layer, packetBytes"
vector 78 ResourceNetwork.mdAutonomousVehicle[0].lo[0] packetDropInterfaceDown:vector(packetBytes) ETV
attr interpolationmode none
attr recordingmode vector(packetBytes)
attr source packetDropReasonIsInterfaceDown(packetDropped)
attr title "packet drops: interface down, packetBytes"
vector 79 ResourceNetwork.mdAutonomousVehicle[0].lo[0] packetDropNoCarrier:vector(packetBytes) ETV
attr interpolationmode none
attr recordingmode vector(packetBytes)
attr source packetDropReasonIsNoCarrier(packetDropped)
attr title "packet drops: no carrier, packetBytes"
vector 80 ResourceNetwork.mdAutonomousVehicle[0].wlan[0].queue queueLength:vector ETV
attr autoWarmupFilter false
attr interpolationmode sample-hold
attr recordingmode vector
attr source "warmup(atomic(constant0(packetPushEnded) + count(packetPushStarted) - count(packetPulled) - count(packetRemoved) - count(packetDropped)))"
attr title "queue length"
attr unit pk
vector 81 ResourceNetwork.mdAutonomousVehicle[0].wlan[0].queue queueBitLength:vector ETV
attr autoWarmupFilter false
attr interpolationmode sample-hold
attr recordingmode vector
attr source "warmup(atomic(constant0(packetPushEnded) + sum(packetLength(packetPushStarted)) - sum(packetLength(packetPulled)) - sum(packetLength(packetRemoved)) - sum(packetLength(packetDropped))))"
attr title "queue bit length"
attr unit b
vector 82 ResourceNetwork.mdAutonomousVehicle[0].wlan[0].queue queueingTime:vector ETV
attr interpolationmode none
attr recordingmode vector
attr source queueingTime(packetPulled)
attr title "queueing times"
attr unit s
vector 83 ResourceNetwork.mdAutonomousVehicle[0].wlan[0].queue incomingPacketLengths:vector ETV
attr interpolationmode none
attr recordingmode vector
attr source packetLength(packetPushStarted)
attr title "incoming packet lengths"
attr unit b
vector 84 ResourceNetwork.mdAutonomousVehicle[0].wlan[0].queue incomingDataRate:vector ETV
attr interpolationmode linear
attr recordingmode vector
attr source throughput(packetPushStarted)
attr title "incoming datarate"
attr unit bps
vector 85 ResourceNetwork.mdAutonomousVehicle[0].wlan[0].queue outgoingPacketLengths:vector ETV
attr interpolationmode none
attr recordingmode vector
attr source packetLength(packetPulled)
attr title "outgoing packet lengths"
attr unit b
vector 86 ResourceNetwork.mdAutonomousVehicle[0].wlan[0].queue outgoingDataRate:vector ETV
attr interpolationmode linear
attr recordingmode vector
attr source throughput(packetPulled)
attr title "outgoing datarate"
attr unit bps
vector 87 ResourceNetwork.mdAutonomousVehicle[0].wlan[0].queue droppedPacketLengthsQueueOverflow:vector ETV
attr interpolationmode none
attr recordingmode vector
attr source packetLength(packetDropReasonIsQueueOverflow(packetDropped))
attr title "dropped packet lengths: queue overflow"
attr unit b
vector 88 ResourceNetwork.mdAutonomousVehicle[0].wlan[0].queue flowQueueingTime:vector ETV
attr interpolationmode none
attr recordingmode vector
attr source queueingTime(demuxFlow(packetPulled))
attr title "flow queueing times"
attr unit s
vector 89 ResourceNetwork.mdAutonomousVehicle[0].wlan[0].queue flowIncomingDataRate:vector ETV
attr interpolationmode linear
attr recordingmode vector
attr source throughput(flowPacketLength(demuxFlow(packetPushStarted)))
attr title "flow specific incoming data rate"
attr unit bps
vector 90 ResourceNetwork.mdAutonomousVehicle[0].wlan[0].queue flowOutgoingDataRate:vector ETV
attr interpolationmode linear
attr recordingmode vector
attr source throughput(flowPacketLength(demuxFlow(packetPulled)))
attr title "flow specific outgoing data rate"
attr unit bps
vector 91 ResourceNetwork.mdAutonomousVehicle[0].wlan[0].mac passedUpPk:vector(packetBytes) ETV
attr interpolationmode none
attr recordingmode vector(packetBytes)
attr source packetSentToUpper
attr title "packets passed to higher layer, packetBytes"
vector 92 ResourceNetwork.mdAutonomousVehicle[0].wlan[0].mac sentDownPk:vector(packetBytes) ETV
attr interpolationmode none
attr recordingmode vector(packetBytes)
attr source packetSentToLower
attr title "packets sent to lower layer, packetBytes"
vector 93 ResourceNetwork.mdAutonomousVehicle[0].wlan[0].mac rcvdPkFromHl:vector(packetBytes) ETV
attr interpolationmode none
attr recordingmode vector(packetBytes)
attr source packetReceivedFromUpper
attr title "packets received from higher layer, packetBytes"
vector 94 ResourceNetwork.mdAutonomousVehicle[0].wlan[0].mac rcvdPkFromLl:vector(packetBytes) ETV
attr interpolationmode none
attr recordingmode vector(packetBytes)
attr source packetReceivedFromLower
attr title "packets received from lower layer, packetBytes"
vector 95 ResourceNetwork.mdAutonomousVehicle[0].wlan[0].mac packetDropIncorrectlyReceived:vector(packetBytes) ETV
attr interpolationmode none
attr recordingmode vector(packetBytes)
attr source packetDropReasonIsIncorrectlyReceived(packetDropped)
attr title "packet drop: incorrectly received, packetBytes"
vector 96 ResourceNetwork.mdAutonomousVehicle[0].wlan[0].mac packetDropInterfaceDown:vector(packetBytes) ETV
attr interpolationmode none
attr recordingmode vector(packetBytes)
attr source packetDropReasonIsInterfaceDown(packetDropped)
attr title "packet drop: interface down, packetBytes"
vector 97 ResourceNetwork.mdAutonomousVehicle[0].wlan[0].mac packetDropNotAddressedToUs:vector(packetBytes) ETV
attr interpolationmode none
attr recordingmode vector(packetBytes)
attr source packetDropReasonIsNotAddressedToUs(packetDropped)
attr title "packet drop: not addressed to us, packetBytes"
vector 98 ResourceNetwork.mdAutonomousVehicle[0].wlan[0].radio radioMode:vector ETV
attr interpolationmode sample-hold
attr recordingmode vector
attr source radioModeChanged
attr title "Radio mode"
vector 99 ResourceNetwork.mdAutonomousVehicle[0].wlan[0].radio receptionState:vector ETV
attr interpolationmode sample-hold
attr recordingmode vector
attr source receptionStateChanged
attr title "Radio reception state"
vector 100 ResourceNetwork.mdAutonomousVehicle[0].wlan[0].radio transmissionState:vector ETV
attr interpolationmode sample-hold
attr recordingmode vector
attr source transmissionStateChanged
attr title "Radio transmission state"
vector 101 ResourceNetwork.mdAutonomousVehicle[0].wlan[0] packetDropInterfaceDown:vector(packetBytes) ETV
attr interpolationmode none
attr recordingmode vector(packetBytes)
attr source packetDropReasonIsInterfaceDown(packetDropped)
attr title "packet drops: interface down, packetBytes"
vector 102 ResourceNetwork.mdAutonomousVehicle[0].wlan[0] packetDropNoCarrier:vector(packetBytes) ETV
attr interpolationmode none
attr recordingmode vector(packetBytes)
attr source packetDropReasonIsNoCarrier(packetDropped)
attr title "packet drops: no carrier, packetBytes"
vector 103 ResourceNetwork.mdAutonomousVehicle[0].ipv4.ip packetDropAddressResolutionFailed:vector(packetBytes) ETV
attr interpolationmode none
attr recordingmode vector(packetBytes)
attr source packetDropReasonIsAddressResolutionFailed(packetDropped)
attr title "packet drop: address resolution failed, packetBytes"
vector 104 ResourceNetwork.mdAutonomousVehicle[0].ipv4.ip packetDropHopLimitReached:vector(packetBytes) ETV
attr interpolationmode none
attr recordingmode vector(packetBytes)
attr source packetDropReasonIsHopLimitReached(packetDropped)
attr title "packet drop: hop limit reached, packetBytes"
vector 105 ResourceNetwork.mdAutonomousVehicle[0].ipv4.ip packetDropForwardingDisabled:vector(packetBytes) ETV
attr interpolationmode none
attr recordingmode vector(packetBytes)
attr source packetDropReasonIsForwardingDisabled(packetDropped)
attr title "packet drop: forwarding disabled, packetBytes"
vector 106 ResourceNetwork.mdAutonomousVehicle[0].ipv4.ip packetDropNoInterfaceFound:vector(packetBytes) ETV
attr interpolationmode none
attr recordingmode vector(packetBytes)
attr source packetDropReasonIsNoInterfaceFound(packetDropped)
attr title "packet drop: no interface found, packetBytes"
vector 107 ResourceNetwork.mdAutonomousVehicle[0].ipv4.ip packetDropNoRouteFound:vector(packetBytes) ETV
attr interpolationmode none
attr recordingmode vector(packetBytes)
attr source packetDropReasonIsNoRouteFound(packetDropped)
attr title "packet drop: no route found, packetBytes"
vector 108 ResourceNetwork.mdAutonomousVehicle[0].ipv4.ip packetDropUndefined:vector(packetBytes) ETV
attr interpolationmode none
attr recordingmode vector(packetBytes)
attr source packetDropReasonIsUndefined(packetDropped)
attr title "packet drop: undefined, packetBytes"
vector 109 ResourceNetwork.mdAutonomousVehicle[0].udp packetSent:vector(packetBytes) ETV
attr interpolationmode none
attr recordingmode vector(packetBytes)
attr source packetSent
attr title "packets sent, packetBytes"
vector 110 ResourceNetwork.mdAutonomousVehicle[0].udp packetReceived:vector(packetBytes) ETV
attr interpolationmode none
attr recordingmode vector(packetBytes)
attr source packetReceived
attr title "packets received, packetBytes"
vector 111 ResourceNetwork.mdAutonomousVehicle[0].udp passedUpPk:vector(count) ETV
attr interpolationmode none
attr recordingmode vector(count)
attr source packetSentToUpper
attr title "packets passed up, count"
vector 112 ResourceNetwork.mdAutonomousVehicle[0].udp droppedPkWrongPort:vector(count) ETV
attr interpolationmode none
attr recordingmode vector(count)
attr source packetDropReasonIsNoPortFound(packetDropped)
attr title "packets dropped (wrong port), count"
vector 113 ResourceNetwork.mdAutonomousVehicle[0].udp droppedPkBadChecksum:vector(count) ETV
attr interpolationmode none
attr recordingmode vector(count)
attr source packetDropReasonIsIncorrectlyReceived(packetDropped)
attr title "packets dropped (checksum error), count"
vector 114 ResourceNetwork.mdAutonomousVehicle[0].app[0] packetReceived:vector(packetBytes) ETV
attr interpolationmode none
attr recordingmode vector(packetBytes)
attr source packetReceived
attr title "packets received, packetBytes"
vector 115 ResourceNetwork.mdAutonomousVehicle[0].app[0] throughput:vector ETV
attr recordingmode vector
attr source throughput(packetReceived)
attr title throughput
attr unit bps
vector 116 ResourceNetwork.mdAutonomousVehicle[0].app[0] packetSent:vector(packetBytes) ETV
attr interpolationmode none
attr recordingmode vector(packetBytes)
attr source packetSent
attr title "packets sent, packetBytes"
vector 117 ResourceNetwork.mdAutonomousVehicle[0].app[0] rcvdPkLifetime:vector ETV
attr interpolationmode none
attr recordingmode vector
attr source dataAge(packetReceived)
attr title "received packet lifetime"
attr unit s
vector 118 ResourceNetwork.mdAutonomousVehicle[0].app[0] rcvdPkSeqNo:vector ETV
attr interpolationmode none
attr recordingmode vector
attr source appPkSeqNo(packetReceived)
attr title "received packet sequence number"
vector 119 ResourceNetwork.mdAutonomousVehicle[1].lo[0].lo rcvdPkFromHl:vector(packetBytes) ETV
attr interpolationmode none
attr recordingmode vector(packetBytes)
attr source packetReceivedFromUpper
attr title "packets received from higher layer, packetBytes"
vector 120 ResourceNetwork.mdAutonomousVehicle[1].lo[0].lo passedUpPk:vector(packetBytes) ETV
attr interpolationmode none
attr recordingmode vector(packetBytes)
attr source packetSentToUpper
attr title "packets passed to higher layer, packetBytes"
vector 121 ResourceNetwork.mdAutonomousVehicle[1].lo[0] packetDropInterfaceDown:vector(packetBytes) ETV
attr interpolationmode none
attr recordingmode vector(packetBytes)
attr source packetDropReasonIsInterfaceDown(packetDropped)
attr title "packet drops: interface down, packetBytes"
vector 122 ResourceNetwork.mdAutonomousVehicle[1].lo[0] packetDropNoCarrier:vector(packetBytes) ETV
attr interpolationmode none
attr recordingmode vector(packetBytes)
attr source packetDropReasonIsNoCarrier(packetDropped)
attr title "packet drops: no carrier, packetBytes"
vector 123 ResourceNetwork.mdAutonomousVehicle[1].wlan[0].queue queueLength:vector ETV
attr autoWarmupFilter false
attr interpolationmode sample-hold
attr recordingmode vector
attr source "warmup(atomic(constant0(packetPushEnded) + count(packetPushStarted) - count(packetPulled) - count(packetRemoved) - count(packetDropped)))"
attr title "queue length"
attr unit pk
vector 124 ResourceNetwork.mdAutonomousVehicle[1].wlan[0].queue queueBitLength:vector ETV
attr autoWarmupFilter false
attr interpolationmode sample-hold
attr recordingmode vector
attr source "warmup(atomic(constant0(packetPushEnded) + sum(packetLength(packetPushStarted)) - sum(packetLength(packetPulled)) - sum(packetLength(packetRemoved)) - sum(packetLength(packetDropped))))"
attr title "queue bit length"
attr unit b
vector 125 ResourceNetwork.mdAutonomousVehicle[1].wlan[0].queue queueingTime:vector ETV
attr interpolationmode none
attr recordingmode vector
attr source queueingTime(packetPulled)
attr title "queueing times"
attr unit s
vector 126 ResourceNetwork.mdAutonomousVehicle[1].wlan[0].queue incomingPacketLengths:vector ETV
attr interpolationmode none
attr recordingmode vector
attr source packetLength(packetPushStarted)
attr title "incoming packet lengths"
attr unit b
vector 127 ResourceNetwork.mdAutonomousVehicle[1].wlan[0].queue incomingDataRate:vector ETV
attr interpolationmode linear
attr recordingmode vector
attr source throughput(packetPushStarted)
attr title "incoming datarate"
attr unit bps
vector 128 ResourceNetwork.mdAutonomousVehicle[1].wlan[0].queue outgoingPacketLengths:vector ETV
attr interpolationmode none
attr recordingmode vector
attr source packetLength(packetPulled)
attr title "outgoing packet lengths"
attr unit b
vector 129 ResourceNetwork.mdAutonomousVehicle[1].wlan[0].queue outgoingDataRate:vector ETV
attr interpolationmode linear
attr recordingmode vector
attr source throughput(packetPulled)
attr title "outgoing datarate"
attr unit bps
vector 130 ResourceNetwork.mdAutonomousVehicle[1].wlan[0].queue droppedPacketLengthsQueueOverflow:vector ETV
attr interpolationmode none
attr recordingmode vector
attr source packetLength(packetDropReasonIsQueueOverflow(packetDropped))
attr title "dropped packet lengths: queue overflow"
attr unit b
vector 131 ResourceNetwork.mdAutonomousVehicle[1].wlan[0].queue flowQueueingTime:vector ETV
attr interpolationmode none
attr recordingmode vector
attr source queueingTime(demuxFlow(packetPulled))
attr title "flow queueing times"
attr unit s
vector 132 ResourceNetwork.mdAutonomousVehicle[1].wlan[0].queue flowIncomingDataRate:vector ETV
attr interpolationmode linear
attr recordingmode vector
attr source throughput(flowPacketLength(demuxFlow(packetPushStarted)))
attr title "flow specific incoming data rate"
attr unit bps
vector 133 ResourceNetwork.mdAutonomousVehicle[1].wlan[0].queue flowOutgoingDataRate:vector ETV
attr interpolationmode linear
attr recordingmode vector
attr source throughput(flowPacketLength(demuxFlow(packetPulled)))
attr title "flow specific outgoing data rate"
attr unit bps
vector 134 ResourceNetwork.mdAutonomousVehicle[1].wlan[0].mac passedUpPk:vector(packetBytes) ETV
attr interpolationmode none
attr recordingmode vector(packetBytes)
attr source packetSentToUpper
attr title "packets passed to higher layer, packetBytes"
vector 135 ResourceNetwork.mdAutonomousVehicle[1].wlan[0].mac sentDownPk:vector(packetBytes) ETV
attr interpolationmode none
attr recordingmode vector(packetBytes)
attr source packetSentToLower
attr title "packets sent to lower layer, packetBytes"
vector 136 ResourceNetwork.mdAutonomousVehicle[1].wlan[0].mac rcvdPkFromHl:vector(packetBytes) ETV
attr interpolationmode none
attr recordingmode vector(packetBytes)
attr source packetReceivedFromUpper
attr title "packets received from higher layer, packetBytes"
vector 137 ResourceNetwork.mdAutonomousVehicle[1].wlan[0].mac rcvdPkFromLl:vector(packetBytes) ETV
attr interpolationmode none
attr recordingmode vector(packetBytes)
attr source packetReceivedFromLower
attr title "packets received from lower layer, packetBytes"
vector 138 ResourceNetwork.mdAutonomousVehicle[1].wlan[0].mac packetDropIncorrectlyReceived:vector(packetBytes) ETV
attr interpolationmode none
attr recordingmode vector(packetBytes)
attr source packetDropReasonIsIncorrectlyReceived(packetDropped)
attr title "packet drop: incorrectly received, packetBytes"
vector 139 ResourceNetwork.mdAutonomousVehicle[1].wlan[0].mac packetDropInterfaceDown:vector(packetBytes) ETV
attr interpolationmode none
attr recordingmode vector(packetBytes)
attr source packetDropReasonIsInterfaceDown(packetDropped)
attr title "packet drop: interface down, packetBytes"
vector 140 ResourceNetwork.mdAutonomousVehicle[1].wlan[0].mac packetDropNotAddressedToUs:vector(packetBytes) ETV
attr interpolationmode none
attr recordingmode vector(packetBytes)
attr source packetDropReasonIsNotAddressedToUs(packetDropped)
attr title "packet drop: not addressed to us, packetBytes"
vector 141 ResourceNetwork.mdAutonomousVehicle[1].wlan[0].radio radioMode:vector ETV
attr interpolationmode sample-hold
attr recordingmode vector
attr source radioModeChanged
attr title "Radio mode"
vector 142 ResourceNetwork.mdAutonomousVehicle[1].wlan[0].radio receptionState:vector ETV
attr interpolationmode sample-hold
attr recordingmode vector
attr source receptionStateChanged
attr title "Radio reception state"
vector 143 ResourceNetwork.mdAutonomousVehicle[1].wlan[0].radio transmissionState:vector ETV
attr interpolationmode sample-hold
attr recordingmode vector
attr source transmissionStateChanged
attr title "Radio transmission state"
vector 144 ResourceNetwork.mdAutonomousVehicle[1].wlan[0] packetDropInterfaceDown:vector(packetBytes) ETV
attr interpolationmode none
attr recordingmode vector(packetBytes)
attr source packetDropReasonIsInterfaceDown(packetDropped)
attr title "packet drops: interface down, packetBytes"
vector 145 ResourceNetwork.mdAutonomousVehicle[1].wlan[0] packetDropNoCarrier:vector(packetBytes) ETV
attr interpolationmode none
attr recordingmode vector(packetBytes)
attr source packetDropReasonIsNoCarrier(packetDropped)
attr title "packet drops: no carrier, packetBytes"
vector 146 ResourceNetwork.mdAutonomousVehicle[1].ipv4.ip packetDropAddressResolutionFailed:vector(packetBytes) ETV
attr interpolationmode none
attr recordingmode vector(packetBytes)
attr source packetDropReasonIsAddressResolutionFailed(packetDropped)
attr title "packet drop: address resolution failed, packetBytes"
vector 147 ResourceNetwork.mdAutonomousVehicle[1].ipv4.ip packetDropHopLimitReached:vector(packetBytes) ETV
attr interpolationmode none
attr recordingmode vector(packetBytes)
attr source packetDropReasonIsHopLimitReached(packetDropped)
attr title "packet drop: hop limit reached, packetBytes"
vector 148 ResourceNetwork.mdAutonomousVehicle[1].ipv4.ip packetDropForwardingDisabled:vector(packetBytes) ETV
attr interpolationmode none
attr recordingmode vector(packetBytes)
attr source packetDropReasonIsForwardingDisabled(packetDropped)
attr title "packet drop: forwarding disabled, packetBytes"
vector 149 ResourceNetwork.mdAutonomousVehicle[1].ipv4.ip packetDropNoInterfaceFound:vector(packetBytes) ETV
attr interpolationmode none
attr recordingmode vector(packetBytes)
attr source packetDropReasonIsNoInterfaceFound(packetDropped)
attr title "packet drop: no interface found, packetBytes"
vector 150 ResourceNetwork.mdAutonomousVehicle[1].ipv4.ip packetDropNoRouteFound:vector(packetBytes) ETV
attr interpolationmode none
attr recordingmode vector(packetBytes)
attr source packetDropReasonIsNoRouteFound(packetDropped)
attr title "packet drop: no route found, packetBytes"
vector 151 ResourceNetwork.mdAutonomousVehicle[1].ipv4.ip packetDropUndefined:vector(packetBytes) ETV
attr interpolationmode none
attr recordingmode vector(packetBytes)
attr source packetDropReasonIsUndefined(packetDropped)
attr title "packet drop: undefined, packetBytes"
vector 152 ResourceNetwork.mdAutonomousVehicle[1].udp packetSent:vector(packetBytes) ETV
attr interpolationmode none
attr recordingmode vector(packetBytes)
attr source packetSent
attr title "packets sent, packetBytes"
vector 153 ResourceNetwork.mdAutonomousVehicle[1].udp packetReceived:vector(packetBytes) ETV
attr interpolationmode none
attr recordingmode vector(packetBytes)
attr source packetReceived
attr title "packets received, packetBytes"
vector 154 ResourceNetwork.mdAutonomousVehicle[1].udp passedUpPk:vector(count) ETV
attr interpolationmode none
attr recordingmode vector(count)
attr source packetSentToUpper
attr title "packets passed up, count"
vector 155 ResourceNetwork.mdAutonomousVehicle[1].udp droppedPkWrongPort:vector(count) ETV
attr interpolationmode none
attr recordingmode vector(count)
attr source packetDropReasonIsNoPortFound(packetDropped)
attr title "packets dropped (wrong port), count"
vector 156 ResourceNetwork.mdAutonomousVehicle[1].udp droppedPkBadChecksum:vector(count) ETV
attr interpolationmode none
attr recordingmode vector(count)
attr source packetDropReasonIsIncorrectlyReceived(packetDropped)
attr title "packets dropped (checksum error), count"
vector 157 ResourceNetwork.mdAutonomousVehicle[1].app[0] packetReceived:vector(packetBytes) ETV
attr interpolationmode none
attr recordingmode vector(packetBytes)
attr source packetReceived
attr title "packets received, packetBytes"
vector 158 ResourceNetwork.mdAutonomousVehicle[1].app[0] throughput:vector ETV
attr recordingmode vector
attr source throughput(packetReceived)
attr title throughput
attr unit bps
vector 159 ResourceNetwork.mdAutonomousVehicle[1].app[0] packetSent:vector(packetBytes) ETV
attr interpolationmode none
attr recordingmode vector(packetBytes)
attr source packetSent
attr title "packets sent, packetBytes"
vector 160 ResourceNetwork.mdAutonomousVehicle[1].app[0] rcvdPkLifetime:vector ETV
attr interpolationmode none
attr recordingmode vector
attr source dataAge(packetReceived)
attr title "received packet lifetime"
attr unit s
vector 161 ResourceNetwork.mdAutonomousVehicle[1].app[0] rcvdPkSeqNo:vector ETV
attr interpolationmode none
attr recordingmode vector
attr source appPkSeqNo(packetReceived)
attr title "received packet sequence number"
vector 162 ResourceNetwork.mdAutonomousVehicle[2].lo[0].lo rcvdPkFromHl:vector(packetBytes) ETV
attr interpolationmode none
attr recordingmode vector(packetBytes)
attr source packetReceivedFromUpper
attr title "packets received from higher layer, packetBytes"
vector 163 ResourceNetwork.mdAutonomousVehicle[2].lo[0].lo passedUpPk:vector(packetBytes) ETV
attr interpolationmode none
attr recordingmode vector(packetBytes)
attr source packetSentToUpper
attr title "packets passed to higher layer, packetBytes"
vector 164 ResourceNetwork.mdAutonomousVehicle[2].lo[0] packetDropInterfaceDown:vector(packetBytes) ETV
attr interpolationmode none
attr recordingmode vector(packetBytes)
attr source packetDropReasonIsInterfaceDown(packetDropped)
attr title "packet drops: interface down, packetBytes"
vector 165 ResourceNetwork.mdAutonomousVehicle[2].lo[0] packetDropNoCarrier:vector(packetBytes) ETV
attr interpolationmode none
attr recordingmode vector(packetBytes)
attr source packetDropReasonIsNoCarrier(packetDropped)
attr title "packet drops: no carrier, packetBytes"
vector 166 ResourceNetwork.mdAutonomousVehicle[2].wlan[0].queue queueLength:vector ETV
attr autoWarmupFilter false
attr interpolationmode sample-hold
attr recordingmode vector
attr source "warmup(atomic(constant0(packetPushEnded) + count(packetPushStarted) - count(packetPulled) - count(packetRemoved) - count(packetDropped)))"
attr title "queue length"
attr unit pk
vector 167 ResourceNetwork.mdAutonomousVehicle[2].wlan[0].queue queueBitLength:vector ETV
attr autoWarmupFilter false
attr interpolationmode sample-hold
attr recordingmode vector
attr source "warmup(atomic(constant0(packetPushEnded) + sum(packetLength(packetPushStarted)) - sum(packetLength(packetPulled)) - sum(packetLength(packetRemoved)) - sum(packetLength(packetDropped))))"
attr title "queue bit length"
attr unit b
vector 168 ResourceNetwork.mdAutonomousVehicle[2].wlan[0].queue queueingTime:vector ETV
attr interpolationmode none
attr recordingmode vector
attr source queueingTime(packetPulled)
attr title "queueing times"
attr unit s
vector 169 ResourceNetwork.mdAutonomousVehicle[2].wlan[0].queue incomingPacketLengths:vector ETV
attr interpolationmode none
attr recordingmode vector
attr source packetLength(packetPushStarted)
attr title "incoming packet lengths"
attr unit b
vector 170 ResourceNetwork.mdAutonomousVehicle[2].wlan[0].queue incomingDataRate:vector ETV
attr interpolationmode linear
attr recordingmode vector
attr source throughput(packetPushStarted)
attr title "incoming datarate"
attr unit bps
vector 171 ResourceNetwork.mdAutonomousVehicle[2].wlan[0].queue outgoingPacketLengths:vector ETV
attr interpolationmode none
attr recordingmode vector
attr source packetLength(packetPulled)
attr title "outgoing packet lengths"
attr unit b
vector 172 ResourceNetwork.mdAutonomousVehicle[2].wlan[0].queue outgoingDataRate:vector ETV
attr interpolationmode linear
attr recordingmode vector
attr source throughput(packetPulled)
attr title "outgoing datarate"
attr unit bps
vector 173 ResourceNetwork.mdAutonomousVehicle[2].wlan[0].queue droppedPacketLengthsQueueOverflow:vector ETV
attr interpolationmode none
attr recordingmode vector
attr source packetLength(packetDropReasonIsQueueOverflow(packetDropped))
attr title "dropped packet lengths: queue overflow"
attr unit b
vector 174 ResourceNetwork.mdAutonomousVehicle[2].wlan[0].queue flowQueueingTime:vector ETV
attr interpolationmode none
attr recordingmode vector
attr source queueingTime(demuxFlow(packetPulled))
attr title "flow queueing times"
attr unit s
vector 175 ResourceNetwork.mdAutonomousVehicle[2].wlan[0].queue flowIncomingDataRate:vector ETV
attr interpolationmode linear
attr recordingmode vector
attr source throughput(flowPacketLength(demuxFlow(packetPushStarted)))
attr title "flow specific incoming data rate"
attr unit bps
vector 176 ResourceNetwork.mdAutonomousVehicle[2].wlan[0].queue flowOutgoingDataRate:vector ETV
attr interpolationmode linear
attr recordingmode vector
attr source throughput(flowPacketLength(demuxFlow(packetPulled)))
attr title "flow specific outgoing data rate"
attr unit bps
vector 177 ResourceNetwork.mdAutonomousVehicle[2].wlan[0].mac passedUpPk:vector(packetBytes) ETV
attr interpolationmode none
attr recordingmode vector(packetBytes)
attr source packetSentToUpper
attr title "packets passed to higher layer, packetBytes"
vector 178 ResourceNetwork.mdAutonomousVehicle[2].wlan[0].mac sentDownPk:vector(packetBytes) ETV
attr interpolationmode none
attr recordingmode vector(packetBytes)
attr source packetSentToLower
attr title "packets sent to lower layer, packetBytes"
vector 179 ResourceNetwork.mdAutonomousVehicle[2].wlan[0].mac rcvdPkFromHl:vector(packetBytes) ETV
attr interpolationmode none
attr recordingmode vector(packetBytes)
attr source packetReceivedFromUpper
attr title "packets received from higher layer, packetBytes"
vector 180 ResourceNetwork.mdAutonomousVehicle[2].wlan[0].mac rcvdPkFromLl:vector(packetBytes) ETV
attr interpolationmode none
attr recordingmode vector(packetBytes)
attr source packetReceivedFromLower
attr title "packets received from lower layer, packetBytes"
vector 181 ResourceNetwork.mdAutonomousVehicle[2].wlan[0].mac packetDropIncorrectlyReceived:vector(packetBytes) ETV
attr interpolationmode none
attr recordingmode vector(packetBytes)
attr source packetDropReasonIsIncorrectlyReceived(packetDropped)
attr title "packet drop: incorrectly received, packetBytes"
vector 182 ResourceNetwork.mdAutonomousVehicle[2].wlan[0].mac packetDropInterfaceDown:vector(packetBytes) ETV
attr interpolationmode none
attr recordingmode vector(packetBytes)
attr source packetDropReasonIsInterfaceDown(packetDropped)
attr title "packet drop: interface down, packetBytes"
vector 183 ResourceNetwork.mdAutonomousVehicle[2].wlan[0].mac packetDropNotAddressedToUs:vector(packetBytes) ETV
attr interpolationmode none
attr recordingmode vector(packetBytes)
attr source packetDropReasonIsNotAddressedToUs(packetDropped)
attr title "packet drop: not addressed to us, packetBytes"
vector 184 ResourceNetwork.mdAutonomousVehicle[2].wlan[0].radio radioMode:vector ETV
attr interpolationmode sample-hold
attr recordingmode vector
attr source radioModeChanged
attr title "Radio mode"
vector 185 ResourceNetwork.mdAutonomousVehicle[2].wlan[0].radio receptionState:vector ETV
attr interpolationmode sample-hold
attr recordingmode vector
attr source receptionStateChanged
attr title "Radio reception state"
vector 186 ResourceNetwork.mdAutonomousVehicle[2].wlan[0].radio transmissionState:vector ETV
attr interpolationmode sample-hold
attr recordingmode vector
attr source transmissionStateChanged
attr title "Radio transmission state"
vector 187 ResourceNetwork.mdAutonomousVehicle[2].wlan[0] packetDropInterfaceDown:vector(packetBytes) ETV
attr interpolationmode none
attr recordingmode vector(packetBytes)
attr source packetDropReasonIsInterfaceDown(packetDropped)
attr title "packet drops: interface down, packetBytes"
vector 188 ResourceNetwork.mdAutonomousVehicle[2].wlan[0] packetDropNoCarrier:vector(packetBytes) ETV
attr interpolationmode none
attr recordingmode vector(packetBytes)
attr source packetDropReasonIsNoCarrier(packetDropped)
attr title "packet drops: no carrier, packetBytes"
vector 189 ResourceNetwork.mdAutonomousVehicle[2].ipv4.ip packetDropAddressResolutionFailed:vector(packetBytes) ETV
attr interpolationmode none
attr recordingmode vector(packetBytes)
attr source packetDropReasonIsAddressResolutionFailed(packetDropped)
attr title "packet drop: address resolution failed, packetBytes"
vector 190 ResourceNetwork.mdAutonomousVehicle[2].ipv4.ip packetDropHopLimitReached:vector(packetBytes) ETV
attr interpolationmode none
attr recordingmode vector(packetBytes)
attr source packetDropReasonIsHopLimitReached(packetDropped)
attr title "packet drop: hop limit reached, packetBytes"
vector 191 ResourceNetwork.mdAutonomousVehicle[2].ipv4.ip packetDropForwardingDisabled:vector(packetBytes) ETV
attr interpolationmode none
attr recordingmode vector(packetBytes)
attr source packetDropReasonIsForwardingDisabled(packetDropped)
attr title "packet drop: forwarding disabled, packetBytes"
vector 192 ResourceNetwork.mdAutonomousVehicle[2].ipv4.ip packetDropNoInterfaceFound:vector(packetBytes) ETV
attr interpolationmode none
attr recordingmode vector(packetBytes)
attr source packetDropReasonIsNoInterfaceFound(packetDropped)
attr title "packet drop: no interface found, packetBytes"
vector 193 ResourceNetwork.mdAutonomousVehicle[2].ipv4.ip packetDropNoRouteFound:vector(packetBytes) ETV
attr interpolationmode none
attr recordingmode vector(packetBytes)
attr source packetDropReasonIsNoRouteFound(packetDropped)
attr title "packet drop: no route found, packetBytes"
vector 194 ResourceNetwork.mdAutonomousVehicle[2].ipv4.ip packetDropUndefined:vector(packetBytes) ETV
attr interpolationmode none
attr recordingmode vector(packetBytes)
attr source packetDropReasonIsUndefined(packetDropped)
attr title "packet drop: undefined, packetBytes"
vector 195 ResourceNetwork.mdAutonomousVehicle[2].udp packetSent:vector(packetBytes) ETV
attr interpolationmode none
attr recordingmode vector(packetBytes)
attr source packetSent
attr title "packets sent, packetBytes"
vector 196 ResourceNetwork.mdAutonomousVehicle[2].udp packetReceived:vector(packetBytes) ETV
attr interpolationmode none
attr recordingmode vector(packetBytes)
attr source packetReceived
attr title "packets received, packetBytes"
vector 197 ResourceNetwork.mdAutonomousVehicle[2].udp passedUpPk:vector(count) ETV
attr interpolationmode none
attr recordingmode vector(count)
attr source packetSentToUpper
attr title "packets passed up, count"
vector 198 ResourceNetwork.mdAutonomousVehicle[2].udp droppedPkWrongPort:vector(count) ETV
attr interpolationmode none
attr recordingmode vector(count)
attr source packetDropReasonIsNoPortFound(packetDropped)
attr title "packets dropped (wrong port), count"
vector 199 ResourceNetwork.mdAutonomousVehicle[2].udp droppedPkBadChecksum:vector(count) ETV
attr interpolationmode none
attr recordingmode vector(count)
attr source packetDropReasonIsIncorrectlyReceived(packetDropped)
attr title "packets dropped (checksum error), count"
vector 200 ResourceNetwork.mdAutonomousVehicle[2].app[0] packetReceived:vector(packetBytes) ETV
attr interpolationmode none
attr recordingmode vector(packetBytes)
attr source packetReceived
attr title "packets received, packetBytes"
vector 201 ResourceNetwork.mdAutonomousVehicle[2].app[0] throughput:vector ETV
attr recordingmode vector
attr source throughput(packetReceived)
attr title throughput
attr unit bps
vector 202 ResourceNetwork.mdAutonomousVehicle[2].app[0] packetSent:vector(packetBytes) ETV
attr interpolationmode none
attr recordingmode vector(packetBytes)
attr source packetSent
attr title "packets sent, packetBytes"
vector 203 ResourceNetwork.mdAutonomousVehicle[2].app[0] rcvdPkLifetime:vector ETV
attr interpolationmode none
attr recordingmode vector
attr source dataAge(packetReceived)
attr title "received packet lifetime"
attr unit s
vector 204 ResourceNetwork.mdAutonomousVehicle[2].app[0] rcvdPkSeqNo:vector ETV
attr interpolationmode none
attr recordingmode vector
attr source appPkSeqNo(packetReceived)
attr title "received packet sequence number"
vector 205 ResourceNetwork.mdAutonomousVehicle[3].lo[0].lo rcvdPkFromHl:vector(packetBytes) ETV
attr interpolationmode none
attr recordingmode vector(packetBytes)
attr source packetReceivedFromUpper
attr title "packets received from higher layer, packetBytes"
vector 206 ResourceNetwork.mdAutonomousVehicle[3].lo[0].lo passedUpPk:vector(packetBytes) ETV
attr interpolationmode none
attr recordingmode vector(packetBytes)
attr source packetSentToUpper
attr title "packets passed to higher layer, packetBytes"
vector 207 ResourceNetwork.mdAutonomousVehicle[3].lo[0] packetDropInterfaceDown:vector(packetBytes) ETV
attr interpolationmode none
attr recordingmode vector(packetBytes)
attr source packetDropReasonIsInterfaceDown(packetDropped)
attr title "packet drops: interface down, packetBytes"
vector 208 ResourceNetwork.mdAutonomousVehicle[3].lo[0] packetDropNoCarrier:vector(packetBytes) ETV
attr interpolationmode none
attr recordingmode vector(packetBytes)
attr source packetDropReasonIsNoCarrier(packetDropped)
attr title "packet drops: no carrier, packetBytes"
vector 209 ResourceNetwork.mdAutonomousVehicle[3].wlan[0].queue queueLength:vector ETV
attr autoWarmupFilter false
attr interpolationmode sample-hold
attr recordingmode vector
attr source "warmup(atomic(constant0(packetPushEnded) + count(packetPushStarted) - count(packetPulled) - count(packetRemoved) - count(packetDropped)))"
attr title "queue length"
attr unit pk
vector 210 ResourceNetwork.mdAutonomousVehicle[3].wlan[0].queue queueBitLength:vector ETV
attr autoWarmupFilter false
attr interpolationmode sample-hold
attr recordingmode vector
attr source "warmup(atomic(constant0(packetPushEnded) + sum(packetLength(packetPushStarted)) - sum(packetLength(packetPulled)) - sum(packetLength(packetRemoved)) - sum(packetLength(packetDropped))))"
attr title "queue bit length"
attr unit b
vector 211 ResourceNetwork.mdAutonomousVehicle[3].wlan[0].queue queueingTime:vector ETV
attr interpolationmode none
attr recordingmode vector
attr source queueingTime(packetPulled)
attr title "queueing times"
attr unit s
vector 212 ResourceNetwork.mdAutonomousVehicle[3].wlan[0].queue incomingPacketLengths:vector ETV
attr interpolationmode none
attr recordingmode vector
attr source packetLength(packetPushStarted)
attr title "incoming packet lengths"
attr unit b
vector 213 ResourceNetwork.mdAutonomousVehicle[3].wlan[0].queue incomingDataRate:vector ETV
attr interpolationmode linear
attr recordingmode vector
attr source throughput(packetPushStarted)
attr title "incoming datarate"
attr unit bps
vector 214 ResourceNetwork.mdAutonomousVehicle[3].wlan[0].queue outgoingPacketLengths:vector ETV
attr interpolationmode none
attr recordingmode vector
attr source packetLength(packetPulled)
attr title "outgoing packet lengths"
attr unit b
vector 215 ResourceNetwork.mdAutonomousVehicle[3].wlan[0].queue outgoingDataRate:vector ETV
attr interpolationmode linear
attr recordingmode vector
attr source throughput(packetPulled)
attr title "outgoing datarate"
attr unit bps
vector 216 ResourceNetwork.mdAutonomousVehicle[3].wlan[0].queue droppedPacketLengthsQueueOverflow:vector ETV
attr interpolationmode none
attr recordingmode vector
attr source packetLength(packetDropReasonIsQueueOverflow(packetDropped))
attr title "dropped packet lengths: queue overflow"
attr unit b
vector 217 ResourceNetwork.mdAutonomousVehicle[3].wlan[0].queue flowQueueingTime:vector ETV
attr interpolationmode none
attr recordingmode vector
attr source queueingTime(demuxFlow(packetPulled))
attr title "flow queueing times"
attr unit s
vector 218 ResourceNetwork.mdAutonomousVehicle[3].wlan[0].queue flowIncomingDataRate:vector ETV
attr interpolationmode linear
attr recordingmode vector
attr source throughput(flowPacketLength(demuxFlow(packetPushStarted)))
attr title "flow specific incoming data rate"
attr unit bps
vector 219 ResourceNetwork.mdAutonomousVehicle[3].wlan[0].queue flowOutgoingDataRate:vector ETV
attr interpolationmode linear
attr recordingmode vector
attr source throughput(flowPacketLength(demuxFlow(packetPulled)))
attr title "flow specific outgoing data rate"
attr unit bps
vector 220 ResourceNetwork.mdAutonomousVehicle[3].wlan[0].mac passedUpPk:vector(packetBytes) ETV
attr interpolationmode none
attr recordingmode vector(packetBytes)
attr source packetSentToUpper
attr title "packets passed to higher layer, packetBytes"
vector 221 ResourceNetwork.mdAutonomousVehicle[3].wlan[0].mac sentDownPk:vector(packetBytes) ETV
attr interpolationmode none
attr recordingmode vector(packetBytes)
attr source packetSentToLower
attr title "packets sent to lower layer, packetBytes"
vector 222 ResourceNetwork.mdAutonomousVehicle[3].wlan[0].mac rcvdPkFromHl:vector(packetBytes) ETV
attr interpolationmode none
attr recordingmode vector(packetBytes)
attr source packetReceivedFromUpper
attr title "packets received from higher layer, packetBytes"
vector 223 ResourceNetwork.mdAutonomousVehicle[3].wlan[0].mac rcvdPkFromLl:vector(packetBytes) ETV
attr interpolationmode none
attr recordingmode vector(packetBytes)
attr source packetReceivedFromLower
attr title "packets received from lower layer, packetBytes"
vector 224 ResourceNetwork.mdAutonomousVehicle[3].wlan[0].mac packetDropIncorrectlyReceived:vector(packetBytes) ETV
attr interpolationmode none
attr recordingmode vector(packetBytes)
attr source packetDropReasonIsIncorrectlyReceived(packetDropped)
attr title "packet drop: incorrectly received, packetBytes"
vector 225 ResourceNetwork.mdAutonomousVehicle[3].wlan[0].mac packetDropInterfaceDown:vector(packetBytes) ETV
attr interpolationmode none
attr recordingmode vector(packetBytes)
attr source packetDropReasonIsInterfaceDown(packetDropped)
attr title "packet drop: interface down, packetBytes"
vector 226 ResourceNetwork.mdAutonomousVehicle[3].wlan[0].mac packetDropNotAddressedToUs:vector(packetBytes) ETV
attr interpolationmode none
attr recordingmode vector(packetBytes)
attr source packetDropReasonIsNotAddressedToUs(packetDropped)
attr title "packet drop: not addressed to us, packetBytes"
vector 227 ResourceNetwork.mdAutonomousVehicle[3].wlan[0].radio radioMode:vector ETV
attr interpolationmode sample-hold
attr recordingmode vector
attr source radioModeChanged
attr title "Radio mode"
vector 228 ResourceNetwork.mdAutonomousVehicle[3].wlan[0].radio receptionState:vector ETV
attr interpolationmode sample-hold
attr recordingmode vector
attr source receptionStateChanged
attr title "Radio reception state"
vector 229 ResourceNetwork.mdAutonomousVehicle[3].wlan[0].radio transmissionState:vector ETV
attr interpolationmode sample-hold
attr recordingmode vector
attr source transmissionStateChanged
attr title "Radio transmission state"
vector 230 ResourceNetwork.mdAutonomousVehicle[3].wlan[0] packetDropInterfaceDown:vector(packetBytes) ETV
attr interpolationmode none
attr recordingmode vector(packetBytes)
attr source packetDropReasonIsInterfaceDown(packetDropped)
attr title "packet drops: interface down, packetBytes"
vector 231 ResourceNetwork.mdAutonomousVehicle[3].wlan[0] packetDropNoCarrier:vector(packetBytes) ETV
attr interpolationmode none
attr recordingmode vector(packetBytes)
attr source packetDropReasonIsNoCarrier(packetDropped)
attr title "packet drops: no carrier, packetBytes"
vector 232 ResourceNetwork.mdAutonomousVehicle[3].ipv4.ip packetDropAddressResolutionFailed:vector(packetBytes) ETV
attr interpolationmode none
attr recordingmode vector(packetBytes)
attr source packetDropReasonIsAddressResolutionFailed(packetDropped)
attr title "packet drop: address resolution failed, packetBytes"
vector 233 ResourceNetwork.mdAutonomousVehicle[3].ipv4.ip packetDropHopLimitReached:vector(packetBytes) ETV
attr interpolationmode none
attr recordingmode vector(packetBytes)
attr source packetDropReasonIsHopLimitReached(packetDropped)
attr title "packet drop: hop limit reached, packetBytes"
vector 234 ResourceNetwork.mdAutonomousVehicle[3].ipv4.ip packetDropForwardingDisabled:vector(packetBytes) ETV
attr interpolationmode none
attr recordingmode vector(packetBytes)
attr source packetDropReasonIsForwardingDisabled(packetDropped)
attr title "packet drop: forwarding disabled, packetBytes"
vector 235 ResourceNetwork.mdAutonomousVehicle[3].ipv4.ip packetDropNoInterfaceFound:vector(packetBytes) ETV
attr interpolationmode none
attr recordingmode vector(packetBytes)
attr source packetDropReasonIsNoInterfaceFound(packetDropped)
attr title "packet drop: no interface found, packetBytes"
vector 236 ResourceNetwork.mdAutonomousVehicle[3].ipv4.ip packetDropNoRouteFound:vector(packetBytes) ETV
attr interpolationmode none
attr recordingmode vector(packetBytes)
attr source packetDropReasonIsNoRouteFound(packetDropped)
attr title "packet drop: no route found, packetBytes"
vector 237 ResourceNetwork.mdAutonomousVehicle[3].ipv4.ip packetDropUndefined:vector(packetBytes) ETV
attr interpolationmode none
attr recordingmode vector(packetBytes)
attr source packetDropReasonIsUndefined(packetDropped)
attr title "packet drop: undefined, packetBytes"
vector 238 ResourceNetwork.mdAutonomousVehicle[3].udp packetSent:vector(packetBytes) ETV
attr interpolationmode none
attr recordingmode vector(packetBytes)
attr source packetSent
attr title "packets sent, packetBytes"
vector 239 ResourceNetwork.mdAutonomousVehicle[3].udp packetReceived:vector(packetBytes) ETV
attr interpolationmode none
attr recordingmode vector(packetBytes)
attr source packetReceived
attr title "packets received, packetBytes"
vector 240 ResourceNetwork.mdAutonomousVehicle[3].udp passedUpPk:vector(count) ETV
attr interpolationmode none
attr recordingmode vector(count)
attr source packetSentToUpper
attr title "packets passed up, count"
vector 241 ResourceNetwork.mdAutonomousVehicle[3].udp droppedPkWrongPort:vector(count) ETV
attr interpolationmode none
attr recordingmode vector(count)
attr source packetDropReasonIsNoPortFound(packetDropped)
attr title "packets dropped (wrong port), count"
vector 242 ResourceNetwork.mdAutonomousVehicle[3].udp droppedPkBadChecksum:vector(count) ETV
attr interpolationmode none
attr recordingmode vector(count)
attr source packetDropReasonIsIncorrectlyReceived(packetDropped)
attr title "packets dropped (checksum error), count"
vector 243 ResourceNetwork.mdAutonomousVehicle[3].app[0] packetReceived:vector(packetBytes) ETV
attr interpolationmode none
attr recordingmode vector(packetBytes)
attr source packetReceived
attr title "packets received, packetBytes"
vector 244 ResourceNetwork.mdAutonomousVehicle[3].app[0] throughput:vector ETV
attr recordingmode vector
attr source throughput(packetReceived)
attr title throughput
attr unit bps
vector 245 ResourceNetwork.mdAutonomousVehicle[3].app[0] packetSent:vector(packetBytes) ETV
attr interpolationmode none
attr recordingmode vector(packetBytes)
attr source packetSent
attr title "packets sent, packetBytes"
vector 246 ResourceNetwork.mdAutonomousVehicle[3].app[0] rcvdPkLifetime:vector ETV
attr interpolationmode none
attr recordingmode vector
attr source dataAge(packetReceived)
attr title "received packet lifetime"
attr unit s
vector 247 ResourceNetwork.mdAutonomousVehicle[3].app[0] rcvdPkSeqNo:vector ETV
attr interpolationmode none
attr recordingmode vector
attr source appPkSeqNo(packetReceived)
attr title "received packet sequence number"
vector 248 ResourceNetwork.mdAutonomousVehicle[4].lo[0].lo rcvdPkFromHl:vector(packetBytes) ETV
attr interpolationmode none
attr recordingmode vector(packetBytes)
attr source packetReceivedFromUpper
attr title "packets received from higher layer, packetBytes"
vector 249 ResourceNetwork.mdAutonomousVehicle[4].lo[0].lo passedUpPk:vector(packetBytes) ETV
attr interpolationmode none
attr recordingmode vector(packetBytes)
attr source packetSentToUpper
attr title "packets passed to higher layer, packetBytes"
vector 250 ResourceNetwork.mdAutonomousVehicle[4].lo[0] packetDropInterfaceDown:vector(packetBytes) ETV
attr interpolationmode none
attr recordingmode vector(packetBytes)
attr source packetDropReasonIsInterfaceDown(packetDropped)
attr title "packet drops: interface down, packetBytes"
vector 251 ResourceNetwork.mdAutonomousVehicle[4].lo[0] packetDropNoCarrier:vector(packetBytes) ETV
attr interpolationmode none
attr recordingmode vector(packetBytes)
attr source packetDropReasonIsNoCarrier(packetDropped)
attr title "packet drops: no carrier, packetBytes"
vector 252 ResourceNetwork.mdAutonomousVehicle[4].wlan[0].queue queueLength:vector ETV
attr autoWarmupFilter false
attr interpolationmode sample-hold
attr recordingmode vector
attr source "warmup(atomic(constant0(packetPushEnded) + count(packetPushStarted) - count(packetPulled) - count(packetRemoved) - count(packetDropped)))"
attr title "queue length"
attr unit pk
vector 253 ResourceNetwork.mdAutonomousVehicle[4].wlan[0].queue queueBitLength:vector ETV
attr autoWarmupFilter false
attr interpolationmode sample-hold
attr recordingmode vector
attr source "warmup(atomic(constant0(packetPushEnded) + sum(packetLength(packetPushStarted)) - sum(packetLength(packetPulled)) - sum(packetLength(packetRemoved)) - sum(packetLength(packetDropped))))"
attr title "queue bit length"
attr unit b
vector 254 ResourceNetwork.mdAutonomousVehicle[4].wlan[0].queue queueingTime:vector ETV
attr interpolationmode none
attr recordingmode vector
attr source queueingTime(packetPulled)
attr title "queueing times"
attr unit s
vector 255 ResourceNetwork.mdAutonomousVehicle[4].wlan[0].queue incomingPacketLengths:vector ETV
attr interpolationmode none
attr recordingmode vector
attr source packetLength(packetPushStarted)
attr title "incoming packet lengths"
attr unit b
vector 256 ResourceNetwork.mdAutonomousVehicle[4].wlan[0].queue incomingDataRate:vector ETV
attr interpolationmode linear
attr recordingmode vector
attr source throughput(packetPushStarted)
attr title "incoming datarate"
attr unit bps
vector 257 ResourceNetwork.mdAutonomousVehicle[4].wlan[0].queue outgoingPacketLengths:vector ETV
attr interpolationmode none
attr recordingmode vector
attr source packetLength(packetPulled)
attr title "outgoing packet lengths"
attr unit b
vector 258 ResourceNetwork.mdAutonomousVehicle[4].wlan[0].queue outgoingDataRate:vector ETV
attr interpolationmode linear
attr recordingmode vector
attr source throughput(packetPulled)
attr title "outgoing datarate"
attr unit bps
vector 259 ResourceNetwork.mdAutonomousVehicle[4].wlan[0].queue droppedPacketLengthsQueueOverflow:vector ETV
attr interpolationmode none
attr recordingmode vector
attr source packetLength(packetDropReasonIsQueueOverflow(packetDropped))
attr title "dropped packet lengths: queue overflow"
attr unit b
vector 260 ResourceNetwork.mdAutonomousVehicle[4].wlan[0].queue flowQueueingTime:vector ETV
attr interpolationmode none
attr recordingmode vector
attr source queueingTime(demuxFlow(packetPulled))
attr title "flow queueing times"
attr unit s
vector 261 ResourceNetwork.mdAutonomousVehicle[4].wlan[0].queue flowIncomingDataRate:vector ETV
attr interpolationmode linear
attr recordingmode vector
attr source throughput(flowPacketLength(demuxFlow(packetPushStarted)))
attr title "flow specific incoming data rate"
attr unit bps
vector 262 ResourceNetwork.mdAutonomousVehicle[4].wlan[0].queue flowOutgoingDataRate:vector ETV
attr interpolationmode linear
attr recordingmode vector
attr source throughput(flowPacketLength(demuxFlow(packetPulled)))
attr title "flow specific outgoing data rate"
attr unit bps
vector 263 ResourceNetwork.mdAutonomousVehicle[4].wlan[0].mac passedUpPk:vector(packetBytes) ETV
attr interpolationmode none
attr recordingmode vector(packetBytes)
attr source packetSentToUpper
attr title "packets passed to higher layer, packetBytes"
vector 264 ResourceNetwork.mdAutonomousVehicle[4].wlan[0].mac sentDownPk:vector(packetBytes) ETV
attr interpolationmode none
attr recordingmode vector(packetBytes)
attr source packetSentToLower
attr title "packets sent to lower layer, packetBytes"
vector 265 ResourceNetwork.mdAutonomousVehicle[4].wlan[0].mac rcvdPkFromHl:vector(packetBytes) ETV
attr interpolationmode none
attr recordingmode vector(packetBytes)
attr source packetReceivedFromUpper
attr title "packets received from higher layer, packetBytes"
vector 266 ResourceNetwork.mdAutonomousVehicle[4].wlan[0].mac rcvdPkFromLl:vector(packetBytes) ETV
attr interpolationmode none
attr recordingmode vector(packetBytes)
attr source packetReceivedFromLower
attr title "packets received from lower layer, packetBytes"
vector 267 ResourceNetwork.mdAutonomousVehicle[4].wlan[0].mac packetDropIncorrectlyReceived:vector(packetBytes) ETV
attr interpolationmode none
attr recordingmode vector(packetBytes)
attr source packetDropReasonIsIncorrectlyReceived(packetDropped)
attr title "packet drop: incorrectly received, packetBytes"
vector 268 ResourceNetwork.mdAutonomousVehicle[4].wlan[0].mac packetDropInterfaceDown:vector(packetBytes) ETV
attr interpolationmode none
attr recordingmode vector(packetBytes)
attr source packetDropReasonIsInterfaceDown(packetDropped)
attr title "packet drop: interface down, packetBytes"
vector 269 ResourceNetwork.mdAutonomousVehicle[4].wlan[0].mac packetDropNotAddressedToUs:vector(packetBytes) ETV
attr interpolationmode none
attr recordingmode vector(packetBytes)
attr source packetDropReasonIsNotAddressedToUs(packetDropped)
attr title "packet drop: not addressed to us, packetBytes"
vector 270 ResourceNetwork.mdAutonomousVehicle[4].wlan[0].radio radioMode:vector ETV
attr interpolationmode sample-hold
attr recordingmode vector
attr source radioModeChanged
attr title "Radio mode"
vector 271 ResourceNetwork.mdAutonomousVehicle[4].wlan[0].radio receptionState:vector ETV
attr interpolationmode sample-hold
attr recordingmode vector
attr source receptionStateChanged
attr title "Radio reception state"
vector 272 ResourceNetwork.mdAutonomousVehicle[4].wlan[0].radio transmissionState:vector ETV
attr interpolationmode sample-hold
attr recordingmode vector
attr source transmissionStateChanged
attr title "Radio transmission state"
vector 273 ResourceNetwork.mdAutonomousVehicle[4].wlan[0] packetDropInterfaceDown:vector(packetBytes) ETV
attr interpolationmode none
attr recordingmode vector(packetBytes)
attr source packetDropReasonIsInterfaceDown(packetDropped)
attr title "packet drops: interface down, packetBytes"
vector 274 ResourceNetwork.mdAutonomousVehicle[4].wlan[0] packetDropNoCarrier:vector(packetBytes) ETV
attr interpolationmode none
attr recordingmode vector(packetBytes)
attr source packetDropReasonIsNoCarrier(packetDropped)
attr title "packet drops: no carrier, packetBytes"
vector 275 ResourceNetwork.mdAutonomousVehicle[4].ipv4.ip packetDropAddressResolutionFailed:vector(packetBytes) ETV
attr interpolationmode none
attr recordingmode vector(packetBytes)
attr source packetDropReasonIsAddressResolutionFailed(packetDropped)
attr title "packet drop: address resolution failed, packetBytes"
vector 276 ResourceNetwork.mdAutonomousVehicle[4].ipv4.ip packetDropHopLimitReached:vector(packetBytes) ETV
attr interpolationmode none
attr recordingmode vector(packetBytes)
attr source packetDropReasonIsHopLimitReached(packetDropped)
attr title "packet drop: hop limit reached, packetBytes"
vector 277 ResourceNetwork.mdAutonomousVehicle[4].ipv4.ip packetDropForwardingDisabled:vector(packetBytes) ETV
attr interpolationmode none
attr recordingmode vector(packetBytes)
attr source packetDropReasonIsForwardingDisabled(packetDropped)
attr title "packet drop: forwarding disabled, packetBytes"
vector 278 ResourceNetwork.mdAutonomousVehicle[4].ipv4.ip packetDropNoInterfaceFound:vector(packetBytes) ETV
attr interpolationmode none
attr recordingmode vector(packetBytes)
attr source packetDropReasonIsNoInterfaceFound(packetDropped)
attr title "packet drop: no interface found, packetBytes"
vector 279 ResourceNetwork.mdAutonomousVehicle[4].ipv4.ip packetDropNoRouteFound:vector(packetBytes) ETV
attr interpolationmode none
attr recordingmode vector(packetBytes)
attr source packetDropReasonIsNoRouteFound(packetDropped)
attr title "packet drop: no route found, packetBytes"
vector 280 ResourceNetwork.mdAutonomousVehicle[4].ipv4.ip packetDropUndefined:vector(packetBytes) ETV
attr interpolationmode none
attr recordingmode vector(packetBytes)
attr source packetDropReasonIsUndefined(packetDropped)
attr title "packet drop: undefined, packetBytes"
vector 281 ResourceNetwork.mdAutonomousVehicle[4].udp packetSent:vector(packetBytes) ETV
attr interpolationmode none
attr recordingmode vector(packetBytes)
attr source packetSent
attr title "packets sent, packetBytes"
vector 282 ResourceNetwork.mdAutonomousVehicle[4].udp packetReceived:vector(packetBytes) ETV
attr interpolationmode none
attr recordingmode vector(packetBytes)
attr source packetReceived
attr title "packets received, packetBytes"
vector 283 ResourceNetwork.mdAutonomousVehicle[4].udp passedUpPk:vector(count) ETV
attr interpolationmode none
attr recordingmode vector(count)
attr source packetSentToUpper
attr title "packets passed up, count"
vector 284 ResourceNetwork.mdAutonomousVehicle[4].udp droppedPkWrongPort:vector(count) ETV
attr interpolationmode none
attr recordingmode vector(count)
attr source packetDropReasonIsNoPortFound(packetDropped)
attr title "packets dropped (wrong port), count"
vector 285 ResourceNetwork.mdAutonomousVehicle[4].udp droppedPkBadChecksum:vector(count) ETV
attr interpolationmode none
attr recordingmode vector(count)
attr source packetDropReasonIsIncorrectlyReceived(packetDropped)
attr title "packets dropped (checksum error), count"
vector 286 ResourceNetwork.mdAutonomousVehicle[4].app[0] packetReceived:vector(packetBytes) ETV
attr interpolationmode none
attr recordingmode vector(packetBytes)
attr source packetReceived
attr title "packets received, packetBytes"
vector 287 ResourceNetwork.mdAutonomousVehicle[4].app[0] throughput:vector ETV
attr recordingmode vector
attr source throughput(packetReceived)
attr title throughput
attr unit bps
vector 288 ResourceNetwork.mdAutonomousVehicle[4].app[0] packetSent:vector(packetBytes) ETV
attr interpolationmode none
attr recordingmode vector(packetBytes)
attr source packetSent
attr title "packets sent, packetBytes"
vector 289 ResourceNetwork.mdAutonomousVehicle[4].app[0] rcvdPkLifetime:vector ETV
attr interpolationmode none
attr recordingmode vector
attr source dataAge(packetReceived)
attr title "received packet lifetime"
attr unit s
vector 290 ResourceNetwork.mdAutonomousVehicle[4].app[0] rcvdPkSeqNo:vector ETV
attr interpolationmode none
attr recordingmode vector
attr source appPkSeqNo(packetReceived)
attr title "received packet sequence number"
vector 291 ResourceNetwork.mdAutonomousVehicle[5].lo[0].lo rcvdPkFromHl:vector(packetBytes) ETV
attr interpolationmode none
attr recordingmode vector(packetBytes)
attr source packetReceivedFromUpper
attr title "packets received from higher layer, packetBytes"
vector 292 ResourceNetwork.mdAutonomousVehicle[5].lo[0].lo passedUpPk:vector(packetBytes) ETV
attr interpolationmode none
attr recordingmode vector(packetBytes)
attr source packetSentToUpper
attr title "packets passed to higher layer, packetBytes"
vector 293 ResourceNetwork.mdAutonomousVehicle[5].lo[0] packetDropInterfaceDown:vector(packetBytes) ETV
attr interpolationmode none
attr recordingmode vector(packetBytes)
attr source packetDropReasonIsInterfaceDown(packetDropped)
attr title "packet drops: interface down, packetBytes"
[...]
538	191250 24 45 45 0.000009071118 0.000009071118 1 0 0 0 0
539	191274 27 45 45 0.000009071118 0.000009071118 1 8560 8560 8560 73273600
541	191301 27 45 45 0.000009071118 0.000009071118 1 8560 8560 8560 73273600
552	191328 27 45 45 0.000009071118 0.000009071118 1 1070 1070 1070 1144900
566	191355 10 0 0 0 0 1 0 0 0 0
567	191365 10 0 0 0 0 1 0 0 0 0
568	191375 10 0 0 0 0 1 0 0 0 0
576	191385 50 0 0 0 0 5 0 0 0 0
577	191435 50 0 0 0 0 5 0 0 0 0
598	191485 50 0 0 0 0 5 0 0 0 0
599	191535 50 0 0 0 0 5 0 0 0 0
633	191585 50 0 0 0 0 5 0 0 0 0
634	191635 50 0 0 0 0 5 0 0 0 0
663	191685 10 0 0 0 0 1 0 0 0 0
664	191695 10 0 0 0 0 1 0 0 0 0
665	191705 10 0 0 0 0 1 0 0 0 0
18	191715 11867 614 30182 0.00004353953 0.002804714445 416 1075 1075 447200 480740000
19	203582 8853 656 30182 0.000047124955 0.002804714445 310 1075 1075 333250 358243750
21	212435 3014 614 29885 0.00004353953 0.002772378454 106 1075 1075 113950 122496250
23	215449 24633 553 30185 0.000038178885 0.002805708827 965 1 3 2084 5156
56	240082 11887 605 30164 0.000042900746 0.002804075551 416 1075 1075 447200 480740000
57	251969 8859 652 30164 0.00004648617 0.002804075551 310 1075 1075 333250 358243750
59	260828 3028 605 29878 0.000042900746 0.002771739561 106 1075 1075 113950 122496250
61	263856 24520 551 30183 0.000037540101 0.002805069932 959 1 3 2078 5150
80	288376 2788 557 30203 0.000038761855 0.002806525182 109 0 1 15 15
81	291164 2833 557 30203 0.000038761855 0.002806525182 109 0 8416 126240 1062435840
82	293997 2554 557 30189 0.000038761855 0.002806406249 94 0 3.39178e-06 2.6691472e-05 6.483912984794e-11
83	296551 2713 557 30203 0.000038761855 0.002806525182 95 8416 8416 799520 6728760320
85	299264 2686 557 30189 0.000038761855 0.002806406249 94 8416 8416 791104 6657931264
92	301950 2686 557 30189 0.000038761855 0.002806406249 94 1075 1075 101050 108628750
93	304636 2686 557 30189 0.000038761855 0.002806406249 94 1052 1052 98888 104030176
94	307322 8951 643 30155 0.000045825679 0.00280341506 313 1075 1075 336475 361710625
95	316273 6383 643 30155 0.000045825679 0.00280341506 223 1075 1075 239725 257704375
97	322656 2568 697 29868 0.000051365758 0.00277107907 90 1075 1075 96750 104006250
98	325224 4782 557 30189 0.000038761855 0.002806406249 187 2 3 468 1218
99	330006 26419 542 30189 0.00003687961 0.002806406249 1033 0 3 1938 4648
100	356425 9938 557 30190 0.000038761855 0.002806406249 374 0 2 375 563
109	366363 2808 555 30201 0.000038761855 0.002806525182 95 1032 1032 98040 101177280
123	369171 2072 791 29974 0.000057813419 0.002781844347 78 0 1 2 2
124	371243 2078 791 29974 0.000057813419 0.002781844347 78 0 8416 16832 141658112
125	373321 2040 791 29974 0.000057813419 0.002781844347 76 0 2.538242e-06 4.339009e-06 9.685434238853e-12
126	375361 2246 791 29974 0.000057813419 0.002781844347 76 8416 8416 639616 5383008256
128	377607 2246 791 29974 0.000057813419 0.002781844347 76 8416 8416 639616 5383008256
135	379853 2246 791 29974 0.000057813419 0.002781844347 76 1075 1075 81700 87827500
136	382099 2246 791 29974 0.000057813419 0.002781844347 76 1052 1052 79952 84109504
137	384345 9913 581 30156 0.000042240255 0.00280341506 335 1075 1075 360125 387134375
138	394258 7076 644 30156 0.000045825679 0.00280341506 239 1075 1075 256925 276194375
140	401334 2837 581 29869 0.000042240255 0.00277107907 96 1075 1075 103200 110940000
141	404171 4036 791 30031 0.000057813419 0.002785322747 152 2 3 380 988
142	408207 27468 543 30173 0.00003687961 0.002804409441 1034 0 3 1996 4824
143	435675 8072 791 30031 0.000057813419 0.002785322747 304 0 2 304 456
152	443747 2246 789 29972 0.000057813419 0.002781844347 76 1032 1032 78432 80941824
166	445993 2221 807 29988 0.000058295818 0.002782036697 84 0 2 12 14
167	448214 2255 807 29988 0.000058295818 0.002782036697 84 0 16832 100992 991606784
168	450469 2068 807 29988 0.000058295818 0.002782036697 74 0 4.197406e-06 2.5351563e-05 7.5887732109017e-11
169	452537 2181 807 29988 0.000058295818 0.002782036697 74 8416 8416 622784 5241350144
171	454718 2181 807 29988 0.000058295818 0.002782036697 74 8416 8416 622784 5241350144
178	456899 2181 807 29988 0.000058295818 0.002782036697 74 1075 1075 79550 85516250
179	459080 2181 807 29988 0.000058295818 0.002782036697 74 1052 1052 77848 81896096
180	461261 9799 582 30157 0.000042240255 0.00280341506 331 1075 1075 355825 382511875
181	471060 7080 645 30157 0.000045825679 0.00280341506 239 1075 1075 256925 276194375
183	478140 2719 582 29870 0.000042240255 0.00277107907 92 1075 1075 98900 106317500
184	480859 3918 807 30041 0.000058295818 0.002785515097 148 2 3 370 962
185	484777 27203 544 30174 0.00003687961 0.002804409441 1024 0 3 1973 4757
186	511980 7836 807 30041 0.000058295818 0.002785515097 296 0 2 296 444
195	519816 2181 805 29986 0.000058295818 0.002782036697 74 1032 1032 76368 78811776
209	521997 2554 719 30118 0.000053510758 0.00279993666 96 0 1 9 9
210	524551 2581 719 30118 0.000053510758 0.00279993666 96 0 8416 75744 637461504
211	527132 2405 719 30118 0.000053510758 0.00279993666 87 0 2.858247e-06 1.4315805e-05 3.4381560259615e-11
212	529537 2575 719 30118 0.000053510758 0.00279993666 87 8416 8416 732192 6162127872
214	532112 2575 719 30118 0.000053510758 0.00279993666 87 8416 8416 732192 6162127872
221	534687 2575 719 30118 0.000053510758 0.00279993666 87 1075 1075 93525 100539375
222	537262 2575 719 30118 0.000053510758 0.00279993666 87 1052 1052 91524 96283248
223	539837 9404 583 30100 0.000042240255 0.002798001543 318 1075 1075 341850 367488750
224	549241 6569 646 30100 0.000045825679 0.002798001543 222 1075 1075 238650 256548750
226	555810 2835 583 29871 0.000042240255 0.00277107907 96 1075 1075 103200 110940000
227	558645 4628 719 30145 0.000053510758 0.00280341506 174 2 3 435 1131
228	563273 27390 545 30175 0.00003687961 0.002804409441 1031 0 3 1951 4683
229	590663 9256 719 30145 0.000053510758 0.00280341506 348 0 2 348 522
238	599919 2575 717 30116 0.000053510758 0.00279993666 87 1032 1032 89784 92657088
252	602494 2175 593 29787 0.000042347279 0.002758331359 82 0 1 2 2
253	604669 2181 593 29787 0.000042347279 0.002758331359 82 0 8416 16832 141658112
254	606850 2145 593 29787 0.000042347279 0.002758331359 80 0 1.605507e-06 2.432314e-06 3.261262542298e-12
255	608995 2363 593 29787 0.000042347279 0.002758331359 80 8416 8416 673280 5666324480
257	611358 2364 593 29787 0.000042347279 0.002758331359 80 8416 8416 673280 5666324480
264	613722 2364 593 29787 0.000042347279 0.002758331359 80 1075 1075 86000 92450000
265	616086 2364 593 29787 0.000042347279 0.002758331359 80 1052 1052 84160 88536320
266	618450 9613 584 30158 0.000042240255 0.00280341506 325 1075 1075 349375 375578125
267	628063 6804 906 30158 0.000062334386 0.00280341506 230 1075 1075 247250 265793750
269	634867 2809 584 29872 0.000042240255 0.00277107907 95 1075 1075 102125 109784375
270	637676 4248 593 29822 0.000042347279 0.002761809759 160 2 3 400 1040
271	641924 27236 546 30176 0.00003687961 0.002804409441 1025 0 3 1957 4707
272	669160 8496 593 29822 0.000042347279 0.002761809759 320 0 2 320 480
281	677656 2363 591 29785 0.000042347279 0.002758331359 80 1032 1032 82560 85201920
295	680019 2328 619 29542 0.000044081384 0.002743548883 88 0 1 8 8
296	682347 2352 619 29542 0.000044081384 0.002743548883 88 0 8416 67328 566632448
297	684699 2202 619 29542 0.000044081384 0.002743548883 80 0 2.948285e-06 1.34854e-05 2.9584658413982e-11
298	686901 2357 619 29542 0.000044081384 0.002743548883 80 8416 8416 673280 5666324480
300	689258 2357 619 29542 0.000044081384 0.002743548883 80 8416 8416 673280 5666324480
307	691615 2357 619 29542 0.000044081384 0.002743548883 80 1075 1075 86000 92450000
308	693972 2357 619 29542 0.000044081384 0.002743548883 80 1052 1052 84160 88536320
309	696329 9701 585 30159 0.000042240255 0.00280341506 328 1075 1075 352600 379045000
310	706030 6897 779 30159 0.000056989158 0.00280341506 233 1075 1075 250475 269260625
312	712927 2804 585 29873 0.000042240255 0.00277107907 95 1075 1075 102125 109784375
313	715731 4235 619 29596 0.000044081384 0.002747027283 160 2 3 400 1040
314	719966 27212 547 30177 0.00003687961 0.002804409441 1025 0 3 1957 4707
315	747178 8470 619 29596 0.000044081384 0.002747027283 320 0 2 320 480
324	755648 2357 617 29540 0.000044081384 0.002743548883 80 1032 1032 82560 85201920
338	758005 2528 1205 30170 0.000106789221 0.002804409441 95 0 2 14 18
339	760533 2566 1205 30170 0.000106789221 0.002804409441 95 0 16832 117824 1274923008
340	763099 2366 1205 30170 0.000106789221 0.002804409441 85 0 5.29904e-06 2.0567924e-05 6.6564024080814e-11
341	765465 2515 1205 30170 0.000106789221 0.002804409441 85 8416 8416 715360 6020469760
343	767980 2517 1205 30170 0.000106789221 0.002804409441 85 8416 8416 715360 6020469760
350	770497 2517 1205 30170 0.000106789221 0.002804409441 85 1075 1075 91375 98228125
351	773014 2517 1205 30170 0.000106789221 0.002804409441 85 1052 1052 89420 94069840
352	775531 9554 586 30160 0.000042240255 0.00280341506 323 1075 1075 347225 373266875
353	785085 6748 647 30160 0.000045825679 0.00280341506 228 1075 1075 245100 263482500
355	791833 2806 586 29874 0.000042240255 0.00277107907 95 1075 1075 102125 109784375
356	794639 4524 1205 30207 0.000106789221 0.002807887841 170 2 3 425 1105
357	799163 27606 548 30207 0.00003687961 0.002807887841 1039 0 3 1980 4768
358	826769 9048 1205 30207 0.000106789221 0.002807887841 340 0 2 340 510
367	835817 2515 1203 30168 0.000106789221 0.002804409441 85 1032 1032 87720 90527040
381	838332 2831 918 30077 0.000067280977 0.002797855715 107 0 2 15 19
382	841163 2872 918 30077 0.000067280977 0.002797855715 107 0 16832 126240 1345752064
383	844035 2658 918 30077 0.000067280977 0.002797855715 96 0 5.721052e-06 3.1392812e-05 1.0972569909341e-10
384	846693 2829 918 30077 0.000067280977 0.002797855715 96 8416 8416 807936 6799589376
386	849522 2828 918 30077 0.000067280977 0.002797855715 96 8416 8416 807936 6799589376
393	852350 2828 918 30077 0.000067280977 0.002797855715 96 1075 1075 103200 110940000
394	855178 2828 918 30077 0.000067280977 0.002797855715 96 1052 1052 100992 106243584
395	858006 9119 587 29875 0.000042240255 0.00277107907 308 1075 1075 331100 355932500
396	867125 6164 648 29819 0.000045825679 0.00276120887 208 1075 1075 223600 240370000
398	873289 2955 587 29875 0.000042240255 0.00277107907 100 1075 1075 107500 115562500
399	876244 5104 541 30132 0.00003687961 0.002801334115 193 2 3 482 1252
400	881348 27567 541 30178 0.00003687961 0.002804409441 1038 0 3 1944 4660
401	908915 10208 541 30132 0.00003687961 0.002801334115 386 0 2 385 577
410	919123 2829 916 30075 0.000067280977 0.002797855715 96 1032 1032 99072 102242304
424	921952 2397 752 29844 0.000055699893 0.00276760067 90 0 2 12 14
425	924349 2431 752 29844 0.000055699893 0.00276760067 90 0 16832 100992 991606784
426	926780 2236 752 29844 0.000055699893 0.00276760067 80 0 4.477332e-06 2.1502361e-05 5.8442822164933e-11
427	929016 2369 752 29844 0.000055699893 0.00276760067 80 8416 8416 673280 5666324480
429	931385 2367 752 29844 0.000055699893 0.00276760067 80 8416 8416 673280 5666324480
436	933752 2367 752 29844 0.000055699893 0.00276760067 80 1075 1075 86000 92450000
437	936119 2367 752 29844 0.000055699893 0.00276760067 80 1052 1052 84160 88536320
438	938486 9579 588 30161 0.000042240255 0.00280341506 324 1075 1075 348300 374422500
439	948065 6685 649 30161 0.000045825679 0.00280341506 226 1075 1075 242950 261171250
441	954750 2894 588 29530 0.000042240255 0.002742275461 98 1075 1075 105350 113251250
442	957644 4254 752 29858 0.000055699893 0.00277107907 160 2 3 400 1040
443	961898 27121 549 30179 0.00003687961 0.002804409441 1021 0 3 1945 4671
444	989019 8508 752 29858 0.000055699893 0.00277107907 320 0 2 320 480
453	997527 2369 750 29842 0.000055699893 0.00276760067 80 1032 1032 82560 85201920
467	999896 2240 1858 29628 0.000173621375 0.002747719669 84 0 1 8 8
468	1002136 2264 1858 29628 0.000173621375 0.002747719669 84 0 8416 67328 566632448
469	1004400 2109 1858 29628 0.000173621375 0.002747719669 76 0 3.019071e-06 1.1125309e-05 2.6080828345345e-11
470	1006509 2255 1858 29628 0.000173621375 0.002747719669 76 8416 8416 639616 5383008256
472	1008764 2254 1858 29628 0.000173621375 0.002747719669 76 8416 8416 639616 5383008256
479	1011018 2254 1858 29628 0.000173621375 0.002747719669 76 1075 1075 81700 87827500
480	1013272 2254 1858 29628 0.000173621375 0.002747719669 76 1052 1052 79952 84109504
481	1015526 9690 589 30162 0.000042240255 0.00280341506 328 1075 1075 352600 379045000
482	1025216 6828 650 30162 0.000045825679 0.00280341506 231 1075 1075 248325 266949375
484	1032044 2862 589 29876 0.000042240255 0.00277107907 97 1075 1075 104275 112095625
485	1034906 4052 1858 29706 0.000173621375 0.002751198069 152 2 3 380 988
486	1038958 27070 550 30180 0.00003687961 0.002804409441 1019 0 3 1954 4704
487	1066028 8104 1858 29706 0.000173621375 0.002751198069 304 0 2 304 456
496	1074132 2255 1856 29626 0.000173621375 0.002747719669 76 1032 1032 78432 80941824
506	1076387 3135 609 29882 0.000042993586 0.002771832401 106 1052 1052 111512 117310624
524	1079522 3135 607 29880 0.000042993586 0.002771832401 106 1052 1052 111512 117310624
527	1082657 12302 607 30166 0.000042993586 0.002804168391 416 1075 1075 447200 480740000
528	1094959 9167 654 30166 0.00004657901 0.002804168391 310 1075 1075 333250 358243750
532	1104126 25478 552 30184 0.000037632941 0.002805162772 959 1 3 2078 5150
536	1129604 3001 610 29883 0.000042993586 0.002771832401 109 1 103 5739 398039
537	1132605 3430 610 29883 0.000042993586 0.002771832401 109 8560 881680 49125840 29165750470400
538	1136035 119 9871 28508 0.000881071118 0.002625071118 3 0.000838077532 0.002485790037 0.005024819598 9.7747638626509e-06
539	1136154 3135 610 29883 0.000042993586 0.002771832401 106 8560 8560 907360 7767001600
540	1139289 41 28453 28453 0.002607348255 0.002607348255 1 328302902.52117 328302902.52117 328302902.52117 1.0778279580382e+17
541	1139330 89 9871 28508 0.000881071118 0.002625071118 3 8560 8560 25680 219820800
547	1139419 89 9683 28473 0.000871471118 0.002615471118 3 1070 1070 3210 3434700
552	1139508 89 9871 28508 0.000881071118 0.002625071118 3 1070 1070 3210 3434700
569	1139597 89 9687 28478 0.000871521118 0.002615521118 3 1052 1052 3156 3320112
570	1139686 89 9685 28476 0.000871521118 0.002615521118 3 1052 1052 3156 3320112
588	1139775 89 9684 28474 0.000871521118 0.002615521118 3 1070 1070 3210 3434700
589	1139864 89 9684 28474 0.000871521118 0.002615521118 3 1070 1070 3210 3434700
598	1139953 80 9688 28479 0.000871521118 0.002615521118 3 0 0 0 0
599	1140033 80 9688 28479 0.000871521118 0.002615521118 3 0 0 0 0
600	1140113 80 9688 28479 0.000871521118 0.002615521118 3 0 0 0 0
601	1140193 89 9688 28479 0.000871521118 0.002615521118 3 8560 8560 25680 219820800
603	1140282 89 9688 28479 0.000871521118 0.002615521118 3 8560 8560 25680 219820800
609	1140371 60 19451 28422 0.001733921118 0.002605921118 2 1070 1070 2140 2289800
614	1140431 89 9688 28479 0.000871521118 0.002615521118 3 1070 1070 3210 3434700
627	1140520 60 19453 28424 0.001733971118 0.002605971118 2 1052 1052 2104 2213408
645	1140580 60 19452 28423 0.001733971118 0.002605971118 2 1070 1070 2140 2289800
646	1140640 60 19452 28423 0.001733971118 0.002605971118 2 1070 1070 2140 2289800
662	1140700 60 19455 28426 0.001733971118 0.002605971118 2 1032 1032 2064 2130048
663	1140760 54 19455 28426 0.001733971118 0.002605971118 2 1 2 3 5
142	1140814 27 30209 30209 0.002807887841 0.002807887841 1 2 2 2 4
185	1140841 27 30210 30210 0.002807887841 0.002807887841 1 2 2 2 4
228	1140868 27 30211 30211 0.002807887841 0.002807887841 1 2 2 2 4
8	1140895 25 30211 30211 0.002807887841 0.002807887841 1 0 0 0 0
10	1140920 26 30211 30211 0.002807887841 0.002807887841 1 0 0 0 0
46	1140946 26 30211 30211 0.002807887841 0.002807887841 1 0 0 0 0
48	1140972 26 30211 30211 0.002807887841 0.002807887841 1 0 0 0 0
84	1140998 40 30211 30211 0.002807887841 0.002807887841 1 287737988.74825 287737988.74825 287737988.74825 8.2793150168887e+16
86	1141038 40 30211 30211 0.002807887841 0.002807887841 1 284740718.03212 284740718.03212 284740718.03212 8.1077276505447e+16
115	1141078 27 30211 30211 0.002807887841 0.002807887841 1 0 0 0 0
127	1141105 41 30211 30211 0.002807887841 0.002807887841 1 233787115.85795 233787115.85795 233787115.85795 5.4656415541179e+16
129	1141146 41 30211 30211 0.002807887841 0.002807887841 1 233787115.85795 233787115.85795 233787115.85795 5.4656415541179e+16
158	1141187 27 30211 30211 0.002807887841 0.002807887841 1 0 0 0 0
170	1141214 40 30211 30211 0.002807887841 0.002807887841 1 227792574.4257 227792574.4257 227792574.4257 5.1889456963486e+16
172	1141254 40 30211 30211 0.002807887841 0.002807887841 1 227792574.4257 227792574.4257 227792574.4257 5.1889456963486e+16
201	1141294 27 30211 30211 0.002807887841 0.002807887841 1 0 0 0 0
213	1141321 40 30211 30211 0.002807887841 0.002807887841 1 260762552.3031 260762552.3031 260762552.3031 6.7997108683627e+16
215	1141361 40 30211 30211 0.002807887841 0.002807887841 1 260762552.3031 260762552.3031 260762552.3031 6.7997108683627e+16
244	1141401 27 30211 30211 0.002807887841 0.002807887841 1 0 0 0 0
256	1141428 41 30211 30211 0.002807887841 0.002807887841 1 245776198.72246 245776198.72246 245776198.72246 6.0405939858463e+16
258	1141469 41 30211 30211 0.002807887841 0.002807887841 1 245776198.72246 245776198.72246 245776198.72246 6.0405939858463e+16
287	1141510 27 30211 30211 0.002807887841 0.002807887841 1 0 0 0 0
299	1141537 41 30211 30211 0.002807887841 0.002807887841 1 245776198.72246 245776198.72246 245776198.72246 6.0405939858463e+16
301	1141578 41 30211 30211 0.002807887841 0.002807887841 1 245776198.72246 245776198.72246 245776198.72246 6.0405939858463e+16
330	1141619 27 30211 30211 0.002807887841 0.002807887841 1 0 0 0 0
342	1141646 41 30211 30211 0.002807887841 0.002807887841 1 257765281.58697 257765281.58697 257765281.58697 6.6442940391611e+16
344	1141687 41 30211 30211 0.002807887841 0.002807887841 1 257765281.58697 257765281.58697 257765281.58697 6.6442940391611e+16
373	1141728 27 30211 30211 0.002807887841 0.002807887841 1 0 0 0 0
385	1141755 41 30211 30211 0.002807887841 0.002807887841 1 296729800.89663 296729800.89663 296729800.89663 8.8048574740154e+16
387	1141796 41 30211 30211 0.002807887841 0.002807887841 1 296729800.89663 296729800.89663 296729800.89663 8.8048574740154e+16
416	1141837 27 30211 30211 0.002807887841 0.002807887841 1 0 0 0 0
428	1141864 41 30211 30211 0.002807887841 0.002807887841 1 242778928.00633 242778928.00633 242778928.00633 5.8941607883905e+16
430	1141905 41 30211 30211 0.002807887841 0.002807887841 1 242778928.00633 242778928.00633 242778928.00633 5.8941607883905e+16
459	1141946 27 30211 30211 0.002807887841 0.002807887841 1 0 0 0 0
471	1141973 41 30211 30211 0.002807887841 0.002807887841 1 233787115.85795 233787115.85795 233787115.85795 5.4656415541179e+16
473	1142014 41 30211 30211 0.002807887841 0.002807887841 1 233787115.85795 233787115.85795 233787115.85795 5.4656415541179e+16
502	1142055 27 30211 30211 0.002807887841 0.002807887841 1 0 0 0 0
517	1142082 27 30211 30211 0.002807887841 0.002807887841 1 0 0 0 0
519	1142109 27 30211 30211 0.002807887841 0.002807887841 1 0 0 0 0
540	1142136 41 30211 30211 0.002807887841 0.002807887841 1 298793875.04071 298793875.04071 298793875.04071 8.9277779761844e+16
542	1142177 41 30211 30211 0.002807887841 0.002807887841 1 12194219.263333 12194219.263333 12194219.263333 1.4869898344224e+14
580	1142218 27 30211 30211 0.002807887841 0.002807887841 1 0 0 0 0
582	1142245 27 30211 30211 0.002807887841 0.002807887841 1 0 0 0 0
602	1142272 41 30211 30211 0.002807887841 0.002807887841 1 9145664.4474996 9145664.4474996 9145664.4474996 83643178186257
604	1142313 41 30211 30211 0.002807887841 0.002807887841 1 9145664.4474996 9145664.4474996 9145664.4474996 83643178186257
637	1142354 27 30211 30211 0.002807887841 0.002807887841 1 0 0 0 0
639	1142381 27 30211 30211 0.002807887841 0.002807887841 1 0 0 0 0

