file 1568929 1772894006                                         
version 3
run General-0-20260307-14:31:31-3722
attr configname General
attr datetime 20260307-14:31:31
attr datetimef 20260307-143131
attr experiment General
attr inifile omnetpp.ini
attr iterationvars ""
attr iterationvarsd ""
attr iterationvarsf ""
attr measurement ""
attr network ResourceNetwork
attr processid 3722
attr repetition 0
attr replication #0
attr resultdir results
attr runnumber 0
attr seedset 0
config image-path ../../../default_workspace/inet-4.5.4/images
config description "Simple sim where two nodes communicate wirelessly."
config network ResourceNetwork
config sim-time-limit 60s
config *.*.ipv4.arp.typename GlobalArp
config *.mdAutonomousVehicle[*].numApps 1
config *.mdAutonomousVehicle[*].app[0].typename TrafficGenerator
config *.mdAutonomousVehicle[*].app[0].destAddresses "\"edgeServer\""
config *.mdAutonomousVehicle[*].app[0].destPort 5000
config *.mdAutonomousVehicle[*].app[0].messageLength 1024B
config *.mdAutonomousVehicle[*].app[0].sendInterval exponential(12ms)
config *.mdAutonomousVehicle[*].app[0].packetName "\"TaskData\""
config *.mdAutonomousVehicle[*].app[0].minRequiredCPUCycles 300
config *.mdAutonomousVehicle[*].app[0].maxRequiredCPUCycles 500
config *.mdAutonomousVehicle[*].app[0].minDeadlineLatency 0.5
config *.mdAutonomousVehicle[*].app[0].maxDeadlineLatency 20
config *.edgeServer*.numApps 1
config *.edgeServer*.app[0].typename ResourceAllocatorApp
config *.edgeServer*.app[0].localPort 5000
config *.mdAutonomousVehicle[*].wlan[0].typename AckingWirelessInterface
config *.mdAutonomousVehicle[*].wlan[0].mac.useAck false
config *.mdAutonomousVehicle[*].wlan[0].mac.fullDuplex false
config *.mdAutonomousVehicle[*].wlan[0].mac.headerLength 23B
config *.mdAutonomousVehicle[*].wlan[0].radio.typename ApskRadio
config *.mdAutonomousVehicle[*].wlan[0].radio.centerFrequency 2GHz
config *.mdAutonomousVehicle[*].wlan[0].radio.bandwidth 2MHz
config *.mdAutonomousVehicle[*].wlan[0].radio.receiver.bandwidth 2MHz
config *.mdAutonomousVehicle[*].wlan[0].radio.transmitter.power 1.4mW
config *.mdAutonomousVehicle[*].wlan[0].radio.transmitter.preambleDuration 10us
config *.mdAutonomousVehicle[*].wlan[0].radio.transmitter.headerLength 8B
config *.mdAutonomousVehicle[*].wlan[0].radio.receiver.sensitivity -85dBm
config *.mdAutonomousVehicle[*].wlan[0].radio.receiver.energyDetection -85dBm
config *.mdAutonomousVehicle[*].wlan[0].radio.receiver.snirThreshold 4dB
config *.baseStation.forwarding true
config *.baseStation*.wlan[0].typename AckingWirelessInterface
config *.baseStation*.wlan[0].mac.useAck false
config *.baseStation*.wlan[0].mac.fullDuplex false
config *.baseStation*.wlan[0].mac.headerLength 23B
config *.baseStation*.wlan[0].radio.typename ApskRadio
config *.baseStation*.wlan[0].radio.centerFrequency 2GHz
config *.baseStation*.wlan[0].radio.transmitter.power 1.4mW
config *.baseStation*.wlan[0].radio.transmitter.preambleDuration 10us
config *.baseStation*.wlan[0].radio.transmitter.headerLength 8B
config *.baseStation*.wlan[0].radio.receiver.sensitivity -85dBm
config *.baseStation*.wlan[0].radio.receiver.energyDetection -85dBm
config *.baseStation*.wlan[0].radio.receiver.snirThreshold 4dB
config **.wlan[0].radio.bandwidth 2MHz
config **.wlan[0].radio.receiver.bandwidth 2MHz
config *.baseStation*.wlan[0].bitrate 1Mbps
config *.mdAutonomousVehicle*.wlan[0].bitrate 1Mbps
config *.radioMedium.backgroundNoise.power -90dBm
config *.radioMedium.backgroundNoise.centerFrequency 2GHz
config *.radioMedium.backgroundNoise.bandwidth 2MHz
config *.radioMedium.mediumLimitCache.centerFrequency 2GHz
config *.radioMedium.mediumLimitCache.bandwidth 2MHz
config *.radioMedium.mediumLimitCache.minRelativePower -110dB
config *.radioMedium.**ignorePartialInterference true
config *.radioMedium.macAddressFilter true
config **.radio.displayCommunicationRange true
config *.visualizer.mediumVisualizer.displaySignals true
config *.visualizer.physicalLinkVisualizer.displayLinks true
config *.visualizer.physicalLinkVisualizer.packetFilter "\"TaskData\""
config *.visualizer.mobilityVisualizer.displayVelocities true
config *.visualizer.mobilityVisualizer.displayMovementTrails true
config *.hostA.mobility.typename LinearMobility
config *.hostA.mobility.speed 12mps
config *.hostA.mobility.initialMovementHeading 200deg

vector 0 ResourceNetwork.hostA.lo[0].lo rcvdPkFromHl:vector(packetBytes) ETV
attr interpolationmode none
attr recordingmode vector(packetBytes)
attr source packetReceivedFromUpper
attr title "packets received from higher layer, packetBytes"
vector 1 ResourceNetwork.hostA.lo[0].lo passedUpPk:vector(packetBytes) ETV
attr interpolationmode none
attr recordingmode vector(packetBytes)
attr source packetSentToUpper
attr title "packets passed to higher layer, packetBytes"
vector 2 ResourceNetwork.hostA.lo[0] packetDropInterfaceDown:vector(packetBytes) ETV
attr interpolationmode none
attr recordingmode vector(packetBytes)
attr source packetDropReasonIsInterfaceDown(packetDropped)
attr title "packet drops: interface down, packetBytes"
vector 3 ResourceNetwork.hostA.lo[0] packetDropNoCarrier:vector(packetBytes) ETV
attr interpolationmode none
attr recordingmode vector(packetBytes)
attr source packetDropReasonIsNoCarrier(packetDropped)
attr title "packet drops: no carrier, packetBytes"
vector 4 ResourceNetwork.hostA.wlan[0].agent sentRequest:vector ETV
attr recordingmode vector
attr title "sent requests"
vector 5 ResourceNetwork.hostA.wlan[0].agent acceptConfirm:vector ETV
attr recordingmode vector
attr title "accepted confirms"
vector 6 ResourceNetwork.hostA.wlan[0].agent dropConfirm:vector ETV
attr recordingmode vector
attr title "dropped confirms"
vector 7 ResourceNetwork.hostA.wlan[0].mac.dcf.channelAccess.pendingQueue queueLength:vector ETV
attr autoWarmupFilter false
attr interpolationmode sample-hold
attr recordingmode vector
attr source "warmup(atomic(constant0(packetPushEnded) + count(packetPushStarted) - count(packetPulled) - count(packetRemoved) - count(packetDropped)))"
attr title "queue length"
attr unit pk
vector 8 ResourceNetwork.hostA.wlan[0].mac.dcf.channelAccess.pendingQueue queueBitLength:vector ETV
attr autoWarmupFilter false
attr interpolationmode sample-hold
attr recordingmode vector
attr source "warmup(atomic(constant0(packetPushEnded) + sum(packetLength(packetPushStarted)) - sum(packetLength(packetPulled)) - sum(packetLength(packetRemoved)) - sum(packetLength(packetDropped))))"
attr title "queue bit length"
attr unit b
vector 9 ResourceNetwork.hostA.wlan[0].mac.dcf.channelAccess.pendingQueue queueingTime:vector ETV
attr interpolationmode none
attr recordingmode vector
attr source queueingTime(packetPulled)
attr title "queueing times"
attr unit s
vector 10 ResourceNetwork.hostA.wlan[0].mac.dcf.channelAccess.pendingQueue incomingPacketLengths:vector ETV
attr interpolationmode none
attr recordingmode vector
attr source packetLength(packetPushStarted)
attr title "incoming packet lengths"
attr unit b
vector 11 ResourceNetwork.hostA.wlan[0].mac.dcf.channelAccess.pendingQueue incomingDataRate:vector ETV
attr interpolationmode linear
attr recordingmode vector
attr source throughput(packetPushStarted)
attr title "incoming datarate"
attr unit bps
vector 12 ResourceNetwork.hostA.wlan[0].mac.dcf.channelAccess.pendingQueue outgoingPacketLengths:vector ETV
attr interpolationmode none
attr recordingmode vector
attr source packetLength(packetPulled)
attr title "outgoing packet lengths"
attr unit b
vector 13 ResourceNetwork.hostA.wlan[0].mac.dcf.channelAccess.pendingQueue outgoingDataRate:vector ETV
attr interpolationmode linear
attr recordingmode vector
attr source throughput(packetPulled)
attr title "outgoing datarate"
attr unit bps
vector 14 ResourceNetwork.hostA.wlan[0].mac.dcf.channelAccess.pendingQueue droppedPacketLengthsQueueOverflow:vector ETV
attr interpolationmode none
attr recordingmode vector
attr source packetLength(packetDropReasonIsQueueOverflow(packetDropped))
attr title "dropped packet lengths: queue overflow"
attr unit b
vector 15 ResourceNetwork.hostA.wlan[0].mac.dcf.channelAccess.pendingQueue flowQueueingTime:vector ETV
attr interpolationmode none
attr recordingmode vector
attr source queueingTime(demuxFlow(packetPulled))
attr title "flow queueing times"
attr unit s
vector 16 ResourceNetwork.hostA.wlan[0].mac.dcf.channelAccess.pendingQueue flowIncomingDataRate:vector ETV
attr interpolationmode linear
attr recordingmode vector
attr source throughput(flowPacketLength(demuxFlow(packetPushStarted)))
attr title "flow specific incoming data rate"
attr unit bps
vector 17 ResourceNetwork.hostA.wlan[0].mac.dcf.channelAccess.pendingQueue flowOutgoingDataRate:vector ETV
attr interpolationmode linear
attr recordingmode vector
attr source throughput(flowPacketLength(demuxFlow(packetPulled)))
attr title "flow specific outgoing data rate"
attr unit bps
vector 18 ResourceNetwork.hostA.wlan[0].mac.dcf.channelAccess.inProgressFrames queueingTime:vector ETV
attr interpolationmode none
attr recordingmode vector
attr source queueingTime(packetDequeued)
attr title "queueing times"
vector 19 ResourceNetwork.hostA.wlan[0].mac.dcf.channelAccess.inProgressFrames queueLength:vector ETV
attr autoWarmupFilter false
attr interpolationmode sample-hold
attr recordingmode vector
attr source "warmup(count(packetEnqueued) - count(packetDequeued))"
attr title "queue length"
vector 20 ResourceNetwork.hostA.wlan[0].mac.dcf.channelAccess.contention backoffPeriodGenerated:vector ETV
attr interpolationmode none
attr recordingmode vector
attr title "backoff periods"
vector 21 ResourceNetwork.hostA.wlan[0].mac.dcf.channelAccess.contention backoffActive:vector ETV
attr autoWarmupFilter false
attr interpolationmode sample-hold
attr recordingmode vector
attr source warmup(count(backoffStarted)-count(backoffStopped))
attr title "backoff active"
vector 22 ResourceNetwork.hostA.wlan[0].mac.dcf.channelAccess.contention stateChanged:vector ETV
attr enum IDLE,DEFER,IFS_AND_BACKOFF
attr interpolationmode none
attr recordingmode vector
attr title "contention state changed"
attr type enum
vector 23 ResourceNetwork.hostA.wlan[0].mac.dcf.recipientMacDataService packetDropDuplicateDetected:vector(packetBytes) ETV
attr interpolationmode none
attr recordingmode vector(packetBytes)
attr source packetDropReasonIsDuplicateDetected(packetDropped)
attr title "packet drops: duplicate detected, packetBytes"
vector 24 ResourceNetwork.hostA.wlan[0].mac.dcf.recoveryProcedure contentionWindowChanged:vector ETV
attr interpolationmode sample-hold
attr recordingmode vector
attr title "contention window"
vector 25 ResourceNetwork.hostA.wlan[0].mac.dcf packetSentToPeer:vector(packetBytes) ETV
attr interpolationmode none
attr recordingmode vector(packetBytes)
attr title "packets sent, packetBytes"
vector 26 ResourceNetwork.hostA.wlan[0].mac.dcf packetSentToPeerUnicast:vector(packetBytes) ETV
attr interpolationmode none
attr recordingmode vector(packetBytes)
attr source ieee80211Unicast(packetSentToPeer)
attr title "packets sent: unicast, packetBytes"
vector 27 ResourceNetwork.hostA.wlan[0].mac.dcf packetSentToPeerMulticast:vector(packetBytes) ETV
attr interpolationmode none
attr recordingmode vector(packetBytes)
attr source ieee80211Multicast(packetSentToPeer)
attr title "packets sent: multicast, packetBytes"
vector 28 ResourceNetwork.hostA.wlan[0].mac.dcf packetSentToPeerBroadcast:vector(packetBytes) ETV
attr interpolationmode none
attr recordingmode vector(packetBytes)
attr source ieee80211Broadcast(packetSentToPeer)
attr title "packets sent: broadcast , packetBytes"
vector 29 ResourceNetwork.hostA.wlan[0].mac.dcf packetSentToPeerWithRetry:vector(packetBytes) ETV
attr interpolationmode none
attr recordingmode vector(packetBytes)
attr source ieee80211Retry(packetSentToPeer)
attr title "packets sent: with retry, packetBytes"
vector 30 ResourceNetwork.hostA.wlan[0].mac.dcf packetSentToPeerWithoutRetry:vector(packetBytes) ETV
attr interpolationmode none
attr recordingmode vector(packetBytes)
attr source ieee80211NotRetry(packetSentToPeer)
attr title "packets sent: without retry, packetBytes"
vector 31 ResourceNetwork.hostA.wlan[0].mac.dcf packetReceivedFromPeer:vector(packetBytes) ETV
attr interpolationmode none
attr recordingmode vector(packetBytes)
attr title "packets received, packetBytes"
vector 32 ResourceNetwork.hostA.wlan[0].mac.dcf packetReceivedFromPeerUnicast:vector(packetBytes) ETV
attr interpolationmode none
attr recordingmode vector(packetBytes)
attr source ieee80211Unicast(packetReceivedFromPeer)
attr title "packets received: unicast, packetBytes"
vector 33 ResourceNetwork.hostA.wlan[0].mac.dcf packetReceivedFromPeerMulticast:vector(packetBytes) ETV
attr interpolationmode none
attr recordingmode vector(packetBytes)
attr source ieee80211Multicast(packetReceivedFromPeer)
attr title "packets received: multicast, packetBytes"
vector 34 ResourceNetwork.hostA.wlan[0].mac.dcf packetReceivedFromPeerBroadcast:vector(packetBytes) ETV
attr interpolationmode none
attr recordingmode vector(packetBytes)
attr source ieee80211Broadcast(packetReceivedFromPeer)
attr title "packets received: broadcast, packetBytes"
vector 35 ResourceNetwork.hostA.wlan[0].mac.dcf packetReceivedFromPeerWithRetry:vector(packetBytes) ETV
attr interpolationmode none
attr recordingmode vector(packetBytes)
attr source ieee80211Retry(packetReceivedFromPeer)
attr title "packets received: with retry, packetBytes"
vector 36 ResourceNetwork.hostA.wlan[0].mac.dcf packetReceivedFromPeerWithoutRetry:vector(packetBytes) ETV
attr interpolationmode none
attr recordingmode vector(packetBytes)
attr source ieee80211NotRetry(packetReceivedFromPeer)
attr title "packets received: without retry, packetBytes"
vector 37 ResourceNetwork.hostA.wlan[0].mac.dcf packetDrop:vector(packetBytes) ETV
attr interpolationmode none
attr recordingmode vector(packetBytes)
attr source packetDropped
attr title "packet drops, packetBytes"
vector 38 ResourceNetwork.hostA.wlan[0].mac.dcf packetDropNotAddressedToUs:vector(packetBytes) ETV
attr interpolationmode none
attr recordingmode vector(packetBytes)
attr source packetDropReasonIsNotAddressedToUs(packetDropped)
attr title "packet drops: not addressed to us, packetBytes"
vector 39 ResourceNetwork.hostA.wlan[0].mac.dcf packetDropQueueOverflow:vector(packetBytes) ETV
attr interpolationmode none
attr recordingmode vector(packetBytes)
attr source packetDropReasonIsQueueOverflow(packetDropped)
attr title "packet drops: queue overflow, packetBytes"
vector 40 ResourceNetwork.hostA.wlan[0].mac.dcf packetDropRetryLimitReached:vector(packetBytes) ETV
attr interpolationmode none
attr recordingmode vector(packetBytes)
attr source packetDropReasonIsRetryLimitReached(packetDropped)
attr title "packet drops: retry limit reached, packetBytes"
vector 41 ResourceNetwork.hostA.wlan[0].mac.dcf frameSequenceActive:vector ETV
attr autoWarmupFilter false
attr interpolationmode sample-hold
attr recordingmode vector
attr source warmup(count(frameSequenceStarted)-count(frameSequenceFinished))
attr title "frame sequence active"
vector 42 ResourceNetwork.hostA.wlan[0].mac.dcf datarateSelected:vector ETV
attr interpolationmode none
attr recordingmode vector
attr title "datarates selected"
vector 43 ResourceNetwork.hostA.wlan[0].mac.rx nav:vector ETV
attr interpolationmode linear
attr recordingmode vector
attr source navChanged
attr title "network allocation vector"
vector 44 ResourceNetwork.hostA.wlan[0].mac packetSentToUpper:vector(packetBytes) ETV
attr interpolationmode none
attr recordingmode vector(packetBytes)
attr title "packets sent to upper layer, packetBytes"
vector 45 ResourceNetwork.hostA.wlan[0].mac packetSentToLower:vector(packetBytes) ETV
attr interpolationmode none
attr recordingmode vector(packetBytes)
attr title "packets sent to lower layer, packetBytes"
vector 46 ResourceNetwork.hostA.wlan[0].mac packetReceivedFromUpper:vector(packetBytes) ETV
attr interpolationmode none
attr recordingmode vector(packetBytes)
attr title "packets received from upper layer, packetBytes"
vector 47 ResourceNetwork.hostA.wlan[0].mac packetReceivedFromLower:vector(packetBytes) ETV
attr interpolationmode none
attr recordingmode vector(packetBytes)
attr title "packets received from lower layer, packetBytes"
vector 48 ResourceNetwork.hostA.wlan[0].mac packetDrop:vector(packetBytes) ETV
attr interpolationmode none
attr recordingmode vector(packetBytes)
attr source packetDropped
attr title "packet drops, packetBytes"
vector 49 ResourceNetwork.hostA.wlan[0].mac packetDropIncorrectlyReceived:vector(packetBytes) ETV
attr interpolationmode none
attr recordingmode vector(packetBytes)
attr source packetDropReasonIsIncorrectlyReceived(packetDropped)
attr title "packet drops: incorrectly received, packetBytes"
vector 50 ResourceNetwork.hostA.wlan[0].mac packetDropNotAddressedToUs:vector(packetBytes) ETV
attr interpolationmode none
attr recordingmode vector(packetBytes)
attr source packetDropReasonIsNotAddressedToUs(packetDropped)
attr title "packet drops: not addressed to us, packetBytes"
vector 51 ResourceNetwork.hostA.wlan[0].mac packetDropQueueOverflow:vector(packetBytes) ETV
attr interpolationmode none
attr recordingmode vector(packetBytes)
attr source packetDropReasonIsQueueOverflow(packetDropped)
attr title "packet drops: queue overflow, packetBytes"
vector 52 ResourceNetwork.hostA.wlan[0].mac packetDropRetryLimitReached:vector(packetBytes) ETV
attr interpolationmode none
attr recordingmode vector(packetBytes)
attr source packetDropReasonIsRetryLimitReached(packetDropped)
attr title "packet drops: retry limit reached, packetBytes"
vector 53 ResourceNetwork.hostA.wlan[0].mac packetDropDuplicateDetected:vector(packetBytes) ETV
attr interpolationmode none
attr recordingmode vector(packetBytes)
attr source packetDropReasonIsDuplicateDetected(packetDropped)
attr title "packet drops: duplicate detected, packetBytes"
vector 54 ResourceNetwork.hostA.wlan[0].mac packetDropOther:vector(packetBytes) ETV
attr interpolationmode none
attr recordingmode vector(packetBytes)
attr source packetDropReasonIsOther(packetDropped)
attr title "packet drops: other, packetBytes"
vector 55 ResourceNetwork.hostA.wlan[0].radio radioMode:vector ETV
attr interpolationmode sample-hold
attr recordingmode vector
attr source radioModeChanged
attr title "Radio mode"
vector 56 ResourceNetwork.hostA.wlan[0].radio receptionState:vector ETV
attr interpolationmode sample-hold
attr recordingmode vector
attr source receptionStateChanged
attr title "Radio reception state"
vector 57 ResourceNetwork.hostA.wlan[0].radio transmissionState:vector ETV
attr interpolationmode sample-hold
attr recordingmode vector
attr source transmissionStateChanged
attr title "Radio transmission state"
vector 58 ResourceNetwork.hostA.wlan[0].radio radioChannel:vector ETV
attr interpolationmode sample-hold
attr recordingmode vector
attr source radioChannelChanged
attr title "Radio channel"
vector 59 ResourceNetwork.hostA.wlan[0] packetDropInterfaceDown:vector(packetBytes) ETV
attr interpolationmode none
attr recordingmode vector(packetBytes)
attr source packetDropReasonIsInterfaceDown(packetDropped)
attr title "packet drops: interface down, packetBytes"
vector 60 ResourceNetwork.hostA.wlan[0] packetDropNoCarrier:vector(packetBytes) ETV
attr interpolationmode none
attr recordingmode vector(packetBytes)
attr source packetDropReasonIsNoCarrier(packetDropped)
attr title "packet drops: no carrier, packetBytes"
vector 61 ResourceNetwork.hostA.ipv4.ip packetDropAddressResolutionFailed:vector(packetBytes) ETV
attr interpolationmode none
attr recordingmode vector(packetBytes)
attr source packetDropReasonIsAddressResolutionFailed(packetDropped)
attr title "packet drop: address resolution failed, packetBytes"
vector 62 ResourceNetwork.hostA.ipv4.ip packetDropHopLimitReached:vector(packetBytes) ETV
attr interpolationmode none
attr recordingmode vector(packetBytes)
attr source packetDropReasonIsHopLimitReached(packetDropped)
attr title "packet drop: hop limit reached, packetBytes"
vector 63 ResourceNetwork.hostA.ipv4.ip packetDropForwardingDisabled:vector(packetBytes) ETV
attr interpolationmode none
attr recordingmode vector(packetBytes)
attr source packetDropReasonIsForwardingDisabled(packetDropped)
attr title "packet drop: forwarding disabled, packetBytes"
vector 64 ResourceNetwork.hostA.ipv4.ip packetDropNoInterfaceFound:vector(packetBytes) ETV
attr interpolationmode none
attr recordingmode vector(packetBytes)
attr source packetDropReasonIsNoInterfaceFound(packetDropped)
attr title "packet drop: no interface found, packetBytes"
vector 65 ResourceNetwork.hostA.ipv4.ip packetDropNoRouteFound:vector(packetBytes) ETV
attr interpolationmode none
attr recordingmode vector(packetBytes)
attr source packetDropReasonIsNoRouteFound(packetDropped)
attr title "packet drop: no route found, packetBytes"
vector 66 ResourceNetwork.hostA.ipv4.ip packetDropUndefined:vector(packetBytes) ETV
attr interpolationmode none
attr recordingmode vector(packetBytes)
attr source packetDropReasonIsUndefined(packetDropped)
attr title "packet drop: undefined, packetBytes"
vector 67 ResourceNetwork.hostA.udp packetSent:vector(packetBytes) ETV
attr interpolationmode none
attr recordingmode vector(packetBytes)
attr source packetSent
attr title "packets sent, packetBytes"
vector 68 ResourceNetwork.hostA.udp packetReceived:vector(packetBytes) ETV
attr interpolationmode none
attr recordingmode vector(packetBytes)
attr source packetReceived
attr title "packets received, packetBytes"
vector 69 ResourceNetwork.hostA.udp passedUpPk:vector(count) ETV
attr interpolationmode none
attr recordingmode vector(count)
attr source packetSentToUpper
attr title "packets passed up, count"
vector 70 ResourceNetwork.hostA.udp droppedPkWrongPort:vector(count) ETV
attr interpolationmode none
attr recordingmode vector(count)
attr source packetDropReasonIsNoPortFound(packetDropped)
attr title "packets dropped (wrong port), count"
vector 71 ResourceNetwork.hostA.udp droppedPkBadChecksum:vector(count) ETV
attr interpolationmode none
attr recordingmode vector(count)
attr source packetDropReasonIsIncorrectlyReceived(packetDropped)
attr title "packets dropped (checksum error), count"
vector 72 ResourceNetwork.mdMobilePhone.lo[0].lo rcvdPkFromHl:vector(packetBytes) ETV
attr interpolationmode none
attr recordingmode vector(packetBytes)
attr source packetReceivedFromUpper
attr title "packets received from higher layer, packetBytes"
vector 73 ResourceNetwork.mdMobilePhone.lo[0].lo passedUpPk:vector(packetBytes) ETV
attr interpolationmode none
attr recordingmode vector(packetBytes)
attr source packetSentToUpper
attr title "packets passed to higher layer, packetBytes"
vector 74 ResourceNetwork.mdMobilePhone.lo[0] packetDropInterfaceDown:vector(packetBytes) ETV
attr interpolationmode none
attr recordingmode vector(packetBytes)
attr source packetDropReasonIsInterfaceDown(packetDropped)
attr title "packet drops: interface down, packetBytes"
vector 75 ResourceNetwork.mdMobilePhone.lo[0] packetDropNoCarrier:vector(packetBytes) ETV
attr interpolationmode none
attr recordingmode vector(packetBytes)
attr source packetDropReasonIsNoCarrier(packetDropped)
attr title "packet drops: no carrier, packetBytes"
vector 76 ResourceNetwork.mdMobilePhone.wlan[0].agent sentRequest:vector ETV
attr recordingmode vector
attr title "sent requests"
vector 77 ResourceNetwork.mdMobilePhone.wlan[0].agent acceptConfirm:vector ETV
attr recordingmode vector
attr title "accepted confirms"
vector 78 ResourceNetwork.mdMobilePhone.wlan[0].agent dropConfirm:vector ETV
attr recordingmode vector
attr title "dropped confirms"
vector 79 ResourceNetwork.mdMobilePhone.wlan[0].mac.dcf.channelAccess.pendingQueue queueLength:vector ETV
attr autoWarmupFilter false
attr interpolationmode sample-hold
attr recordingmode vector
attr source "warmup(atomic(constant0(packetPushEnded) + count(packetPushStarted) - count(packetPulled) - count(packetRemoved) - count(packetDropped)))"
attr title "queue length"
attr unit pk
vector 80 ResourceNetwork.mdMobilePhone.wlan[0].mac.dcf.channelAccess.pendingQueue queueBitLength:vector ETV
attr autoWarmupFilter false
attr interpolationmode sample-hold
attr recordingmode vector
attr source "warmup(atomic(constant0(packetPushEnded) + sum(packetLength(packetPushStarted)) - sum(packetLength(packetPulled)) - sum(packetLength(packetRemoved)) - sum(packetLength(packetDropped))))"
attr title "queue bit length"
attr unit b
vector 81 ResourceNetwork.mdMobilePhone.wlan[0].mac.dcf.channelAccess.pendingQueue queueingTime:vector ETV
attr interpolationmode none
attr recordingmode vector
attr source queueingTime(packetPulled)
attr title "queueing times"
attr unit s
vector 82 ResourceNetwork.mdMobilePhone.wlan[0].mac.dcf.channelAccess.pendingQueue incomingPacketLengths:vector ETV
attr interpolationmode none
attr recordingmode vector
attr source packetLength(packetPushStarted)
attr title "incoming packet lengths"
attr unit b
vector 83 ResourceNetwork.mdMobilePhone.wlan[0].mac.dcf.channelAccess.pendingQueue incomingDataRate:vector ETV
attr interpolationmode linear
attr recordingmode vector
attr source throughput(packetPushStarted)
attr title "incoming datarate"
attr unit bps
vector 84 ResourceNetwork.mdMobilePhone.wlan[0].mac.dcf.channelAccess.pendingQueue outgoingPacketLengths:vector ETV
attr interpolationmode none
attr recordingmode vector
attr source packetLength(packetPulled)
attr title "outgoing packet lengths"
attr unit b
vector 85 ResourceNetwork.mdMobilePhone.wlan[0].mac.dcf.channelAccess.pendingQueue outgoingDataRate:vector ETV
attr interpolationmode linear
attr recordingmode vector
attr source throughput(packetPulled)
attr title "outgoing datarate"
attr unit bps
vector 86 ResourceNetwork.mdMobilePhone.wlan[0].mac.dcf.channelAccess.pendingQueue droppedPacketLengthsQueueOverflow:vector ETV
attr interpolationmode none
attr recordingmode vector
attr source packetLength(packetDropReasonIsQueueOverflow(packetDropped))
attr title "dropped packet lengths: queue overflow"
attr unit b
vector 87 ResourceNetwork.mdMobilePhone.wlan[0].mac.dcf.channelAccess.pendingQueue flowQueueingTime:vector ETV
attr interpolationmode none
attr recordingmode vector
attr source queueingTime(demuxFlow(packetPulled))
attr title "flow queueing times"
attr unit s
vector 88 ResourceNetwork.mdMobilePhone.wlan[0].mac.dcf.channelAccess.pendingQueue flowIncomingDataRate:vector ETV
attr interpolationmode linear
attr recordingmode vector
attr source throughput(flowPacketLength(demuxFlow(packetPushStarted)))
attr title "flow specific incoming data rate"
attr unit bps
vector 89 ResourceNetwork.mdMobilePhone.wlan[0].mac.dcf.channelAccess.pendingQueue flowOutgoingDataRate:vector ETV
attr interpolationmode linear
attr recordingmode vector
attr source throughput(flowPacketLength(demuxFlow(packetPulled)))
attr title "flow specific outgoing data rate"
attr unit bps
vector 90 ResourceNetwork.mdMobilePhone.wlan[0].mac.dcf.channelAccess.inProgressFrames queueingTime:vector ETV
attr interpolationmode none
attr recordingmode vector
attr source queueingTime(packetDequeued)
attr title "queueing times"
vector 91 ResourceNetwork.mdMobilePhone.wlan[0].mac.dcf.channelAccess.inProgressFrames queueLength:vector ETV
attr autoWarmupFilter false
attr interpolationmode sample-hold
attr recordingmode vector
attr source "warmup(count(packetEnqueued) - count(packetDequeued))"
attr title "queue length"
vector 92 ResourceNetwork.mdMobilePhone.wlan[0].mac.dcf.channelAccess.contention backoffPeriodGenerated:vector ETV
attr interpolationmode none
attr recordingmode vector
attr title "backoff periods"
vector 93 ResourceNetwork.mdMobilePhone.wlan[0].mac.dcf.channelAccess.contention backoffActive:vector ETV
attr autoWarmupFilter false
attr interpolationmode sample-hold
attr recordingmode vector
attr source warmup(count(backoffStarted)-count(backoffStopped))
attr title "backoff active"
vector 94 ResourceNetwork.mdMobilePhone.wlan[0].mac.dcf.channelAccess.contention stateChanged:vector ETV
attr enum IDLE,DEFER,IFS_AND_BACKOFF
attr interpolationmode none
attr recordingmode vector
attr title "contention state changed"
attr type enum
vector 95 ResourceNetwork.mdMobilePhone.wlan[0].mac.dcf.recipientMacDataService packetDropDuplicateDetected:vector(packetBytes) ETV
attr interpolationmode none
attr recordingmode vector(packetBytes)
attr source packetDropReasonIsDuplicateDetected(packetDropped)
attr title "packet drops: duplicate detected, packetBytes"
vector 96 ResourceNetwork.mdMobilePhone.wlan[0].mac.dcf.recoveryProcedure contentionWindowChanged:vector ETV
attr interpolationmode sample-hold
attr recordingmode vector
attr title "contention window"
vector 97 ResourceNetwork.mdMobilePhone.wlan[0].mac.dcf packetSentToPeer:vector(packetBytes) ETV
attr interpolationmode none
attr recordingmode vector(packetBytes)
attr title "packets sent, packetBytes"
vector 98 ResourceNetwork.mdMobilePhone.wlan[0].mac.dcf packetSentToPeerUnicast:vector(packetBytes) ETV
attr interpolationmode none
attr recordingmode vector(packetBytes)
attr source ieee80211Unicast(packetSentToPeer)
attr title "packets sent: unicast, packetBytes"
vector 99 ResourceNetwork.mdMobilePhone.wlan[0].mac.dcf packetSentToPeerMulticast:vector(packetBytes) ETV
attr interpolationmode none
attr recordingmode vector(packetBytes)
attr source ieee80211Multicast(packetSentToPeer)
attr title "packets sent: multicast, packetBytes"
vector 100 ResourceNetwork.mdMobilePhone.wlan[0].mac.dcf packetSentToPeerBroadcast:vector(packetBytes) ETV
attr interpolationmode none
attr recordingmode vector(packetBytes)
attr source ieee80211Broadcast(packetSentToPeer)
attr title "packets sent: broadcast , packetBytes"
vector 101 ResourceNetwork.mdMobilePhone.wlan[0].mac.dcf packetSentToPeerWithRetry:vector(packetBytes) ETV
attr interpolationmode none
attr recordingmode vector(packetBytes)
attr source ieee80211Retry(packetSentToPeer)
attr title "packets sent: with retry, packetBytes"
vector 102 ResourceNetwork.mdMobilePhone.wlan[0].mac.dcf packetSentToPeerWithoutRetry:vector(packetBytes) ETV
attr interpolationmode none
attr recordingmode vector(packetBytes)
attr source ieee80211NotRetry(packetSentToPeer)
attr title "packets sent: without retry, packetBytes"
vector 103 ResourceNetwork.mdMobilePhone.wlan[0].mac.dcf packetReceivedFromPeer:vector(packetBytes) ETV
attr interpolationmode none
attr recordingmode vector(packetBytes)
attr title "packets received, packetBytes"
vector 104 ResourceNetwork.mdMobilePhone.wlan[0].mac.dcf packetReceivedFromPeerUnicast:vector(packetBytes) ETV
attr interpolationmode none
attr recordingmode vector(packetBytes)
attr source ieee80211Unicast(packetReceivedFromPeer)
attr title "packets received: unicast, packetBytes"
vector 105 ResourceNetwork.mdMobilePhone.wlan[0].mac.dcf packetReceivedFromPeerMulticast:vector(packetBytes) ETV
attr interpolationmode none
attr recordingmode vector(packetBytes)
attr source ieee80211Multicast(packetReceivedFromPeer)
attr title "packets received: multicast, packetBytes"
vector 106 ResourceNetwork.mdMobilePhone.wlan[0].mac.dcf packetReceivedFromPeerBroadcast:vector(packetBytes) ETV
attr interpolationmode none
attr recordingmode vector(packetBytes)
attr source ieee80211Broadcast(packetReceivedFromPeer)
attr title "packets received: broadcast, packetBytes"
vector 107 ResourceNetwork.mdMobilePhone.wlan[0].mac.dcf packetReceivedFromPeerWithRetry:vector(packetBytes) ETV
attr interpolationmode none
attr recordingmode vector(packetBytes)
attr source ieee80211Retry(packetReceivedFromPeer)
attr title "packets received: with retry, packetBytes"
vector 108 ResourceNetwork.mdMobilePhone.wlan[0].mac.dcf packetReceivedFromPeerWithoutRetry:vector(packetBytes) ETV
attr interpolationmode none
attr recordingmode vector(packetBytes)
attr source ieee80211NotRetry(packetReceivedFromPeer)
attr title "packets received: without retry, packetBytes"
vector 109 ResourceNetwork.mdMobilePhone.wlan[0].mac.dcf packetDrop:vector(packetBytes) ETV
attr interpolationmode none
attr recordingmode vector(packetBytes)
attr source packetDropped
attr title "packet drops, packetBytes"
vector 110 ResourceNetwork.mdMobilePhone.wlan[0].mac.dcf packetDropNotAddressedToUs:vector(packetBytes) ETV
attr interpolationmode none
attr recordingmode vector(packetBytes)
attr source packetDropReasonIsNotAddressedToUs(packetDropped)
attr title "packet drops: not addressed to us, packetBytes"
vector 111 ResourceNetwork.mdMobilePhone.wlan[0].mac.dcf packetDropQueueOverflow:vector(packetBytes) ETV
attr interpolationmode none
attr recordingmode vector(packetBytes)
attr source packetDropReasonIsQueueOverflow(packetDropped)
attr title "packet drops: queue overflow, packetBytes"
vector 112 ResourceNetwork.mdMobilePhone.wlan[0].mac.dcf packetDropRetryLimitReached:vector(packetBytes) ETV
attr interpolationmode none
attr recordingmode vector(packetBytes)
attr source packetDropReasonIsRetryLimitReached(packetDropped)
attr title "packet drops: retry limit reached, packetBytes"
vector 113 ResourceNetwork.mdMobilePhone.wlan[0].mac.dcf frameSequenceActive:vector ETV
attr autoWarmupFilter false
attr interpolationmode sample-hold
attr recordingmode vector
attr source warmup(count(frameSequenceStarted)-count(frameSequenceFinished))
attr title "frame sequence active"
vector 114 ResourceNetwork.mdMobilePhone.wlan[0].mac.dcf datarateSelected:vector ETV
attr interpolationmode none
attr recordingmode vector
attr title "datarates selected"
vector 115 ResourceNetwork.mdMobilePhone.wlan[0].mac.rx nav:vector ETV
attr interpolationmode linear
attr recordingmode vector
attr source navChanged
attr title "network allocation vector"
vector 116 ResourceNetwork.mdMobilePhone.wlan[0].mac packetSentToUpper:vector(packetBytes) ETV
attr interpolationmode none
attr recordingmode vector(packetBytes)
attr title "packets sent to upper layer, packetBytes"
vector 117 ResourceNetwork.mdMobilePhone.wlan[0].mac packetSentToLower:vector(packetBytes) ETV
attr interpolationmode none
attr recordingmode vector(packetBytes)
attr title "packets sent to lower layer, packetBytes"
vector 118 ResourceNetwork.mdMobilePhone.wlan[0].mac packetReceivedFromUpper:vector(packetBytes) ETV
attr interpolationmode none
attr recordingmode vector(packetBytes)
attr title "packets received from upper layer, packetBytes"
vector 119 ResourceNetwork.mdMobilePhone.wlan[0].mac packetReceivedFromLower:vector(packetBytes) ETV
attr interpolationmode none
attr recordingmode vector(packetBytes)
attr title "packets received from lower layer, packetBytes"
vector 120 ResourceNetwork.mdMobilePhone.wlan[0].mac packetDrop:vector(packetBytes) ETV
attr interpolationmode none
attr recordingmode vector(packetBytes)
attr source packetDropped
attr title "packet drops, packetBytes"
vector 121 ResourceNetwork.mdMobilePhone.wlan[0].mac packetDropIncorrectlyReceived:vector(packetBytes) ETV
attr interpolationmode none
attr recordingmode vector(packetBytes)
attr source packetDropReasonIsIncorrectlyReceived(packetDropped)
attr title "packet drops: incorrectly received, packetBytes"
vector 122 ResourceNetwork.mdMobilePhone.wlan[0].mac packetDropNotAddressedToUs:vector(packetBytes) ETV
attr interpolationmode none
attr recordingmode vector(packetBytes)
attr source packetDropReasonIsNotAddressedToUs(packetDropped)
attr title "packet drops: not addressed to us, packetBytes"
vector 123 ResourceNetwork.mdMobilePhone.wlan[0].mac packetDropQueueOverflow:vector(packetBytes) ETV
attr interpolationmode none
attr recordingmode vector(packetBytes)
attr source packetDropReasonIsQueueOverflow(packetDropped)
attr title "packet drops: queue overflow, packetBytes"
vector 124 ResourceNetwork.mdMobilePhone.wlan[0].mac packetDropRetryLimitReached:vector(packetBytes) ETV
attr interpolationmode none
attr recordingmode vector(packetBytes)
attr source packetDropReasonIsRetryLimitReached(packetDropped)
attr title "packet drops: retry limit reached, packetBytes"
vector 125 ResourceNetwork.mdMobilePhone.wlan[0].mac packetDropDuplicateDetected:vector(packetBytes) ETV
attr interpolationmode none
attr recordingmode vector(packetBytes)
attr source packetDropReasonIsDuplicateDetected(packetDropped)
attr title "packet drops: duplicate detected, packetBytes"
vector 126 ResourceNetwork.mdMobilePhone.wlan[0].mac packetDropOther:vector(packetBytes) ETV
attr interpolationmode none
attr recordingmode vector(packetBytes)
attr source packetDropReasonIsOther(packetDropped)
attr title "packet drops: other, packetBytes"
vector 127 ResourceNetwork.mdMobilePhone.wlan[0].radio radioMode:vector ETV
attr interpolationmode sample-hold
attr recordingmode vector
attr source radioModeChanged
attr title "Radio mode"
vector 128 ResourceNetwork.mdMobilePhone.wlan[0].radio receptionState:vector ETV
attr interpolationmode sample-hold
attr recordingmode vector
attr source receptionStateChanged
attr title "Radio reception state"
vector 129 ResourceNetwork.mdMobilePhone.wlan[0].radio transmissionState:vector ETV
attr interpolationmode sample-hold
attr recordingmode vector
attr source transmissionStateChanged
attr title "Radio transmission state"
vector 130 ResourceNetwork.mdMobilePhone.wlan[0].radio radioChannel:vector ETV
attr interpolationmode sample-hold
attr recordingmode vector
attr source radioChannelChanged
attr title "Radio channel"
vector 131 ResourceNetwork.mdMobilePhone.wlan[0] packetDropInterfaceDown:vector(packetBytes) ETV
attr interpolationmode none
attr recordingmode vector(packetBytes)
attr source packetDropReasonIsInterfaceDown(packetDropped)
attr title "packet drops: interface down, packetBytes"
vector 132 ResourceNetwork.mdMobilePhone.wlan[0] packetDropNoCarrier:vector(packetBytes) ETV
attr interpolationmode none
attr recordingmode vector(packetBytes)
attr source packetDropReasonIsNoCarrier(packetDropped)
attr title "packet drops: no carrier, packetBytes"
vector 133 ResourceNetwork.mdMobilePhone.ipv4.ip packetDropAddressResolutionFailed:vector(packetBytes) ETV
attr interpolationmode none
attr recordingmode vector(packetBytes)
attr source packetDropReasonIsAddressResolutionFailed(packetDropped)
attr title "packet drop: address resolution failed, packetBytes"
vector 134 ResourceNetwork.mdMobilePhone.ipv4.ip packetDropHopLimitReached:vector(packetBytes) ETV
attr interpolationmode none
attr recordingmode vector(packetBytes)
attr source packetDropReasonIsHopLimitReached(packetDropped)
attr title "packet drop: hop limit reached, packetBytes"
vector 135 ResourceNetwork.mdMobilePhone.ipv4.ip packetDropForwardingDisabled:vector(packetBytes) ETV
attr interpolationmode none
attr recordingmode vector(packetBytes)
attr source packetDropReasonIsForwardingDisabled(packetDropped)
attr title "packet drop: forwarding disabled, packetBytes"
vector 136 ResourceNetwork.mdMobilePhone.ipv4.ip packetDropNoInterfaceFound:vector(packetBytes) ETV
attr interpolationmode none
attr recordingmode vector(packetBytes)
attr source packetDropReasonIsNoInterfaceFound(packetDropped)
attr title "packet drop: no interface found, packetBytes"
vector 137 ResourceNetwork.mdMobilePhone.ipv4.ip packetDropNoRouteFound:vector(packetBytes) ETV
attr interpolationmode none
attr recordingmode vector(packetBytes)
attr source packetDropReasonIsNoRouteFound(packetDropped)
attr title "packet drop: no route found, packetBytes"
vector 138 ResourceNetwork.mdMobilePhone.ipv4.ip packetDropUndefined:vector(packetBytes) ETV
attr interpolationmode none
attr recordingmode vector(packetBytes)
attr source packetDropReasonIsUndefined(packetDropped)
attr title "packet drop: undefined, packetBytes"
vector 139 ResourceNetwork.mdMobilePhone.udp packetSent:vector(packetBytes) ETV
attr interpolationmode none
attr recordingmode vector(packetBytes)
attr source packetSent
attr title "packets sent, packetBytes"
vector 140 ResourceNetwork.mdMobilePhone.udp packetReceived:vector(packetBytes) ETV
attr interpolationmode none
attr recordingmode vector(packetBytes)
attr source packetReceived
attr title "packets received, packetBytes"
vector 141 ResourceNetwork.mdMobilePhone.udp passedUpPk:vector(count) ETV
attr interpolationmode none
attr recordingmode vector(count)
attr source packetSentToUpper
attr title "packets passed up, count"
vector 142 ResourceNetwork.mdMobilePhone.udp droppedPkWrongPort:vector(count) ETV
attr interpolationmode none
attr recordingmode vector(count)
attr source packetDropReasonIsNoPortFound(packetDropped)
attr title "packets dropped (wrong port), count"
vector 143 ResourceNetwork.mdMobilePhone.udp droppedPkBadChecksum:vector(count) ETV
attr interpolationmode none
attr recordingmode vector(count)
attr source packetDropReasonIsIncorrectlyReceived(packetDropped)
attr title "packets dropped (checksum error), count"
vector 144 ResourceNetwork.mdAutonomousVehicle[0].lo[0].lo rcvdPkFromHl:vector(packetBytes) ETV
attr interpolationmode none
attr recordingmode vector(packetBytes)
attr source packetReceivedFromUpper
attr title "packets received from higher layer, packetBytes"
vector 145 ResourceNetwork.mdAutonomousVehicle[0].lo[0].lo passedUpPk:vector(packetBytes) ETV
attr interpolationmode none
attr recordingmode vector(packetBytes)
attr source packetSentToUpper
attr title "packets passed to higher layer, packetBytes"
vector 146 ResourceNetwork.mdAutonomousVehicle[0].lo[0] packetDropInterfaceDown:vector(packetBytes) ETV
attr interpolationmode none
attr recordingmode vector(packetBytes)
attr source packetDropReasonIsInterfaceDown(packetDropped)
attr title "packet drops: interface down, packetBytes"
vector 147 ResourceNetwork.mdAutonomousVehicle[0].lo[0] packetDropNoCarrier:vector(packetBytes) ETV
attr interpolationmode none
attr recordingmode vector(packetBytes)
attr source packetDropReasonIsNoCarrier(packetDropped)
attr title "packet drops: no carrier, packetBytes"
vector 148 ResourceNetwork.mdAutonomousVehicle[0].wlan[0].queue queueLength:vector ETV
attr autoWarmupFilter false
attr interpolationmode sample-hold
attr recordingmode vector
attr source "warmup(atomic(constant0(packetPushEnded) + count(packetPushStarted) - count(packetPulled) - count(packetRemoved) - count(packetDropped)))"
attr title "queue length"
attr unit pk
vector 149 ResourceNetwork.mdAutonomousVehicle[0].wlan[0].queue queueBitLength:vector ETV
attr autoWarmupFilter false
attr interpolationmode sample-hold
attr recordingmode vector
attr source "warmup(atomic(constant0(packetPushEnded) + sum(packetLength(packetPushStarted)) - sum(packetLength(packetPulled)) - sum(packetLength(packetRemoved)) - sum(packetLength(packetDropped))))"
attr title "queue bit length"
attr unit b
vector 150 ResourceNetwork.mdAutonomousVehicle[0].wlan[0].queue queueingTime:vector ETV
attr interpolationmode none
attr recordingmode vector
attr source queueingTime(packetPulled)
attr title "queueing times"
attr unit s
vector 151 ResourceNetwork.mdAutonomousVehicle[0].wlan[0].queue incomingPacketLengths:vector ETV
attr interpolationmode none
attr recordingmode vector
attr source packetLength(packetPushStarted)
attr title "incoming packet lengths"
attr unit b
vector 152 ResourceNetwork.mdAutonomousVehicle[0].wlan[0].queue incomingDataRate:vector ETV
attr interpolationmode linear
attr recordingmode vector
attr source throughput(packetPushStarted)
attr title "incoming datarate"
attr unit bps
vector 153 ResourceNetwork.mdAutonomousVehicle[0].wlan[0].queue outgoingPacketLengths:vector ETV
attr interpolationmode none
attr recordingmode vector
attr source packetLength(packetPulled)
attr title "outgoing packet lengths"
attr unit b
vector 154 ResourceNetwork.mdAutonomousVehicle[0].wlan[0].queue outgoingDataRate:vector ETV
attr interpolationmode linear
attr recordingmode vector
attr source throughput(packetPulled)
attr title "outgoing datarate"
attr unit bps
vector 155 ResourceNetwork.mdAutonomousVehicle[0].wlan[0].queue droppedPacketLengthsQueueOverflow:vector ETV
attr interpolationmode none
attr recordingmode vector
attr source packetLength(packetDropReasonIsQueueOverflow(packetDropped))
attr title "dropped packet lengths: queue overflow"
attr unit b
vector 156 ResourceNetwork.mdAutonomousVehicle[0].wlan[0].queue flowQueueingTime:vector ETV
attr interpolationmode none
attr recordingmode vector
attr source queueingTime(demuxFlow(packetPulled))
attr title "flow queueing times"
attr unit s
vector 157 ResourceNetwork.mdAutonomousVehicle[0].wlan[0].queue flowIncomingDataRate:vector ETV
attr interpolationmode linear
attr recordingmode vector
attr source throughput(flowPacketLength(demuxFlow(packetPushStarted)))
attr title "flow specific incoming data rate"
attr unit bps
vector 158 ResourceNetwork.mdAutonomousVehicle[0].wlan[0].queue flowOutgoingDataRate:vector ETV
attr interpolationmode linear
attr recordingmode vector
attr source throughput(flowPacketLength(demuxFlow(packetPulled)))
attr title "flow specific outgoing data rate"
attr unit bps
vector 159 ResourceNetwork.mdAutonomousVehicle[0].wlan[0].mac passedUpPk:vector(packetBytes) ETV
attr interpolationmode none
attr recordingmode vector(packetBytes)
attr source packetSentToUpper
attr title "packets passed to higher layer, packetBytes"
vector 160 ResourceNetwork.mdAutonomousVehicle[0].wlan[0].mac sentDownPk:vector(packetBytes) ETV
attr interpolationmode none
attr recordingmode vector(packetBytes)
attr source packetSentToLower
attr title "packets sent to lower layer, packetBytes"
vector 161 ResourceNetwork.mdAutonomousVehicle[0].wlan[0].mac rcvdPkFromHl:vector(packetBytes) ETV
attr interpolationmode none
attr recordingmode vector(packetBytes)
attr source packetReceivedFromUpper
attr title "packets received from higher layer, packetBytes"
vector 162 ResourceNetwork.mdAutonomousVehicle[0].wlan[0].mac rcvdPkFromLl:vector(packetBytes) ETV
attr interpolationmode none
attr recordingmode vector(packetBytes)
attr source packetReceivedFromLower
attr title "packets received from lower layer, packetBytes"
vector 163 ResourceNetwork.mdAutonomousVehicle[0].wlan[0].mac packetDropIncorrectlyReceived:vector(packetBytes) ETV
attr interpolationmode none
attr recordingmode vector(packetBytes)
attr source packetDropReasonIsIncorrectlyReceived(packetDropped)
attr title "packet drop: incorrectly received, packetBytes"
vector 164 ResourceNetwork.mdAutonomousVehicle[0].wlan[0].mac packetDropInterfaceDown:vector(packetBytes) ETV
attr interpolationmode none
attr recordingmode vector(packetBytes)
attr source packetDropReasonIsInterfaceDown(packetDropped)
attr title "packet drop: interface down, packetBytes"
vector 165 ResourceNetwork.mdAutonomousVehicle[0].wlan[0].mac packetDropNotAddressedToUs:vector(packetBytes) ETV
attr interpolationmode none
attr recordingmode vector(packetBytes)
attr source packetDropReasonIsNotAddressedToUs(packetDropped)
attr title "packet drop: not addressed to us, packetBytes"
vector 166 ResourceNetwork.mdAutonomousVehicle[0].wlan[0].radio radioMode:vector ETV
attr interpolationmode sample-hold
attr recordingmode vector
attr source radioModeChanged
attr title "Radio mode"
vector 167 ResourceNetwork.mdAutonomousVehicle[0].wlan[0].radio receptionState:vector ETV
attr interpolationmode sample-hold
attr recordingmode vector
attr source receptionStateChanged
attr title "Radio reception state"
vector 168 ResourceNetwork.mdAutonomousVehicle[0].wlan[0].radio transmissionState:vector ETV
attr interpolationmode sample-hold
attr recordingmode vector
attr source transmissionStateChanged
attr title "Radio transmission state"
vector 169 ResourceNetwork.mdAutonomousVehicle[0].wlan[0].radio packetDropped:vector(packetBytes) ETV
attr interpolationmode none
attr recordingmode vector(packetBytes)
attr title "packets dropped, packetBytes"
vector 170 ResourceNetwork.mdAutonomousVehicle[0].wlan[0] packetDropInterfaceDown:vector(packetBytes) ETV
attr interpolationmode none
attr recordingmode vector(packetBytes)
attr source packetDropReasonIsInterfaceDown(packetDropped)
attr title "packet drops: interface down, packetBytes"
vector 171 ResourceNetwork.mdAutonomousVehicle[0].wlan[0] packetDropNoCarrier:vector(packetBytes) ETV
attr interpolationmode none
attr recordingmode vector(packetBytes)
attr source packetDropReasonIsNoCarrier(packetDropped)
attr title "packet drops: no carrier, packetBytes"
vector 172 ResourceNetwork.mdAutonomousVehicle[0].ipv4.ip packetDropAddressResolutionFailed:vector(packetBytes) ETV
attr interpolationmode none
attr recordingmode vector(packetBytes)
attr source packetDropReasonIsAddressResolutionFailed(packetDropped)
attr title "packet drop: address resolution failed, packetBytes"
vector 173 ResourceNetwork.mdAutonomousVehicle[0].ipv4.ip packetDropHopLimitReached:vector(packetBytes) ETV
attr interpolationmode none
attr recordingmode vector(packetBytes)
attr source packetDropReasonIsHopLimitReached(packetDropped)
attr title "packet drop: hop limit reached, packetBytes"
vector 174 ResourceNetwork.mdAutonomousVehicle[0].ipv4.ip packetDropForwardingDisabled:vector(packetBytes) ETV
attr interpolationmode none
attr recordingmode vector(packetBytes)
attr source packetDropReasonIsForwardingDisabled(packetDropped)
attr title "packet drop: forwarding disabled, packetBytes"
vector 175 ResourceNetwork.mdAutonomousVehicle[0].ipv4.ip packetDropNoInterfaceFound:vector(packetBytes) ETV
attr interpolationmode none
attr recordingmode vector(packetBytes)
attr source packetDropReasonIsNoInterfaceFound(packetDropped)
attr title "packet drop: no interface found, packetBytes"
vector 176 ResourceNetwork.mdAutonomousVehicle[0].ipv4.ip packetDropNoRouteFound:vector(packetBytes) ETV
attr interpolationmode none
attr recordingmode vector(packetBytes)
attr source packetDropReasonIsNoRouteFound(packetDropped)
attr title "packet drop: no route found, packetBytes"
vector 177 ResourceNetwork.mdAutonomousVehicle[0].ipv4.ip packetDropUndefined:vector(packetBytes) ETV
attr interpolationmode none
attr recordingmode vector(packetBytes)
attr source packetDropReasonIsUndefined(packetDropped)
attr title "packet drop: undefined, packetBytes"
vector 178 ResourceNetwork.mdAutonomousVehicle[0].udp packetSent:vector(packetBytes) ETV
attr interpolationmode none
attr recordingmode vector(packetBytes)
attr source packetSent
attr title "packets sent, packetBytes"
vector 179 ResourceNetwork.mdAutonomousVehicle[0].udp packetReceived:vector(packetBytes) ETV
attr interpolationmode none
attr recordingmode vector(packetBytes)
attr source packetReceived
attr title "packets received, packetBytes"
vector 180 ResourceNetwork.mdAutonomousVehicle[0].udp passedUpPk:vector(count) ETV
attr interpolationmode none
attr recordingmode vector(count)
attr source packetSentToUpper
attr title "packets passed up, count"
vector 181 ResourceNetwork.mdAutonomousVehicle[0].udp droppedPkWrongPort:vector(count) ETV
attr interpolationmode none
attr recordingmode vector(count)
attr source packetDropReasonIsNoPortFound(packetDropped)
attr title "packets dropped (wrong port), count"
vector 182 ResourceNetwork.mdAutonomousVehicle[0].udp droppedPkBadChecksum:vector(count) ETV
attr interpolationmode none
attr recordingmode vector(count)
attr source packetDropReasonIsIncorrectlyReceived(packetDropped)
attr title "packets dropped (checksum error), count"
vector 183 ResourceNetwork.mdAutonomousVehicle[0].app[0] packetReceived:vector(packetBytes) ETV
attr interpolationmode none
attr recordingmode vector(packetBytes)
attr source packetReceived
attr title "packets received, packetBytes"
vector 184 ResourceNetwork.mdAutonomousVehicle[0].app[0] throughput:vector ETV
attr recordingmode vector
attr source throughput(packetReceived)
attr title throughput
attr unit bps
vector 185 ResourceNetwork.mdAutonomousVehicle[0].app[0] packetSent:vector(packetBytes) ETV
attr interpolationmode none
attr recordingmode vector(packetBytes)
attr source packetSent
attr title "packets sent, packetBytes"
vector 186 ResourceNetwork.mdAutonomousVehicle[0].app[0] rcvdPkLifetime:vector ETV
attr interpolationmode none
attr recordingmode vector
attr source dataAge(packetReceived)
attr title "received packet lifetime"
attr unit s
vector 187 ResourceNetwork.mdAutonomousVehicle[0].app[0] rcvdPkSeqNo:vector ETV
attr interpolationmode none
attr recordingmode vector
attr source appPkSeqNo(packetReceived)
attr title "received packet sequence number"
vector 188 ResourceNetwork.baseStation.ethernet encapPk:vector(packetBytes) ETV
attr interpolationmode none
attr recordingmode vector(packetBytes)
attr source encapPk
attr title "packets encapsulated, packetBytes"
vector 189 ResourceNetwork.baseStation.ethernet decapPk:vector(packetBytes) ETV
attr interpolationmode none
attr recordingmode vector(packetBytes)
attr source decapPk
attr title "packets decapsulated, packetBytes"
vector 190 ResourceNetwork.baseStation.ethernet pauseSent:vector ETV
attr recordingmode vector
attr title "pause sent"
vector 191 ResourceNetwork.baseStation.lo[0].lo rcvdPkFromHl:vector(packetBytes) ETV
attr interpolationmode none
attr recordingmode vector(packetBytes)
attr source packetReceivedFromUpper
attr title "packets received from higher layer, packetBytes"
vector 192 ResourceNetwork.baseStation.lo[0].lo passedUpPk:vector(packetBytes) ETV
attr interpolationmode none
attr recordingmode vector(packetBytes)
attr source packetSentToUpper
attr title "packets passed to higher layer, packetBytes"
vector 193 ResourceNetwork.baseStation.lo[0] packetDropInterfaceDown:vector(packetBytes) ETV
attr interpolationmode none
attr recordingmode vector(packetBytes)
attr source packetDropReasonIsInterfaceDown(packetDropped)
attr title "packet drops: interface down, packetBytes"
vector 194 ResourceNetwork.baseStation.lo[0] packetDropNoCarrier:vector(packetBytes) ETV
attr interpolationmode none
attr recordingmode vector(packetBytes)
attr source packetDropReasonIsNoCarrier(packetDropped)
attr title "packet drops: no carrier, packetBytes"
vector 195 ResourceNetwork.baseStation.wlan[0].queue queueLength:vector ETV
attr autoWarmupFilter false
attr interpolationmode sample-hold
attr recordingmode vector
attr source "warmup(atomic(constant0(packetPushEnded) + count(packetPushStarted) - count(packetPulled) - count(packetRemoved) - count(packetDropped)))"
attr title "queue length"
attr unit pk
vector 196 ResourceNetwork.baseStation.wlan[0].queue queueBitLength:vector ETV
attr autoWarmupFilter false
attr interpolationmode sample-hold
attr recordingmode vector
attr source "warmup(atomic(constant0(packetPushEnded) + sum(packetLength(packetPushStarted)) - sum(packetLength(packetPulled)) - sum(packetLength(packetRemoved)) - sum(packetLength(packetDropped))))"
attr title "queue bit length"
attr unit b
vector 197 ResourceNetwork.baseStation.wlan[0].queue queueingTime:vector ETV
attr interpolationmode none
attr recordingmode vector
attr source queueingTime(packetPulled)
attr title "queueing times"
attr unit s
vector 198 ResourceNetwork.baseStation.wlan[0].queue incomingPacketLengths:vector ETV
attr interpolationmode none
attr recordingmode vector
attr source packetLength(packetPushStarted)
attr title "incoming packet lengths"
attr unit b
vector 199 ResourceNetwork.baseStation.wlan[0].queue incomingDataRate:vector ETV
attr interpolationmode linear
attr recordingmode vector
attr source throughput(packetPushStarted)
attr title "incoming datarate"
attr unit bps
vector 200 ResourceNetwork.baseStation.wlan[0].queue outgoingPacketLengths:vector ETV
attr interpolationmode none
attr recordingmode vector
attr source packetLength(packetPulled)
attr title "outgoing packet lengths"
attr unit b
vector 201 ResourceNetwork.baseStation.wlan[0].queue outgoingDataRate:vector ETV
attr interpolationmode linear
attr recordingmode vector
attr source throughput(packetPulled)
attr title "outgoing datarate"
attr unit bps
vector 202 ResourceNetwork.baseStation.wlan[0].queue droppedPacketLengthsQueueOverflow:vector ETV
attr interpolationmode none
attr recordingmode vector
attr source packetLength(packetDropReasonIsQueueOverflow(packetDropped))
attr title "dropped packet lengths: queue overflow"
attr unit b
vector 203 ResourceNetwork.baseStation.wlan[0].queue flowQueueingTime:vector ETV
attr interpolationmode none
attr recordingmode vector
attr source queueingTime(demuxFlow(packetPulled))
attr title "flow queueing times"
attr unit s
vector 204 ResourceNetwork.baseStation.wlan[0].queue flowIncomingDataRate:vector ETV
attr interpolationmode linear
attr recordingmode vector
attr source throughput(flowPacketLength(demuxFlow(packetPushStarted)))
attr title "flow specific incoming data rate"
attr unit bps
vector 205 ResourceNetwork.baseStation.wlan[0].queue flowOutgoingDataRate:vector ETV
attr interpolationmode linear
attr recordingmode vector
attr source throughput(flowPacketLength(demuxFlow(packetPulled)))
attr title "flow specific outgoing data rate"
attr unit bps
vector 206 ResourceNetwork.baseStation.wlan[0].mac passedUpPk:vector(packetBytes) ETV
attr interpolationmode none
attr recordingmode vector(packetBytes)
attr source packetSentToUpper
attr title "packets passed to higher layer, packetBytes"
vector 207 ResourceNetwork.baseStation.wlan[0].mac sentDownPk:vector(packetBytes) ETV
attr interpolationmode none
attr recordingmode vector(packetBytes)
attr source packetSentToLower
attr title "packets sent to lower layer, packetBytes"
vector 208 ResourceNetwork.baseStation.wlan[0].mac rcvdPkFromHl:vector(packetBytes) ETV
attr interpolationmode none
attr recordingmode vector(packetBytes)
attr source packetReceivedFromUpper
attr title "packets received from higher layer, packetBytes"
vector 209 ResourceNetwork.baseStation.wlan[0].mac rcvdPkFromLl:vector(packetBytes) ETV
attr interpolationmode none
attr recordingmode vector(packetBytes)
attr source packetReceivedFromLower
attr title "packets received from lower layer, packetBytes"
vector 210 ResourceNetwork.baseStation.wlan[0].mac packetDropIncorrectlyReceived:vector(packetBytes) ETV
attr interpolationmode none
attr recordingmode vector(packetBytes)
attr source packetDropReasonIsIncorrectlyReceived(packetDropped)
attr title "packet drop: incorrectly received, packetBytes"
vector 211 ResourceNetwork.baseStation.wlan[0].mac packetDropInterfaceDown:vector(packetBytes) ETV
attr interpolationmode none
attr recordingmode vector(packetBytes)
attr source packetDropReasonIsInterfaceDown(packetDropped)
attr title "packet drop: interface down, packetBytes"
vector 212 ResourceNetwork.baseStation.wlan[0].mac packetDropNotAddressedToUs:vector(packetBytes) ETV
attr interpolationmode none
attr recordingmode vector(packetBytes)
attr source packetDropReasonIsNotAddressedToUs(packetDropped)
attr title "packet drop: not addressed to us, packetBytes"
vector 213 ResourceNetwork.baseStation.wlan[0].radio radioMode:vector ETV
attr interpolationmode sample-hold
attr recordingmode vector
attr source radioModeChanged
attr title "Radio mode"
vector 214 ResourceNetwork.baseStation.wlan[0].radio receptionState:vector ETV
attr interpolationmode sample-hold
attr recordingmode vector
attr source receptionStateChanged
attr title "Radio reception state"
vector 215 ResourceNetwork.baseStation.wlan[0].radio transmissionState:vector ETV
attr interpolationmode sample-hold
attr recordingmode vector
attr source transmissionStateChanged
attr title "Radio transmission state"
vector 216 ResourceNetwork.baseStation.wlan[0].radio packetDropped:vector(packetBytes) ETV
attr interpolationmode none
attr recordingmode vector(packetBytes)
attr title "packets dropped, packetBytes"
vector 217 ResourceNetwork.baseStation.wlan[0] packetDropInterfaceDown:vector(packetBytes) ETV
attr interpolationmode none
attr recordingmode vector(packetBytes)
attr source packetDropReasonIsInterfaceDown(packetDropped)
attr title "packet drops: interface down, packetBytes"
vector 218 ResourceNetwork.baseStation.wlan[0] packetDropNoCarrier:vector(packetBytes) ETV
attr interpolationmode none
attr recordingmode vector(packetBytes)
attr source packetDropReasonIsNoCarrier(packetDropped)
attr title "packet drops: no carrier, packetBytes"
vector 219 ResourceNetwork.baseStation.eth[0].queue queueLength:vector ETV
attr autoWarmupFilter false
attr interpolationmode sample-hold
attr recordingmode vector
attr source "warmup(atomic(constant0(packetPushEnded) + count(packetPushStarted) - count(packetPulled) - count(packetRemoved) - count(packetDropped)))"
attr title "queue length"
attr unit pk
vector 220 ResourceNetwork.baseStation.eth[0].queue queueBitLength:vector ETV
attr autoWarmupFilter false
attr interpolationmode sample-hold
attr recordingmode vector
attr source "warmup(atomic(constant0(packetPushEnded) + sum(packetLength(packetPushStarted)) - sum(packetLength(packetPulled)) - sum(packetLength(packetRemoved)) - sum(packetLength(packetDropped))))"
attr title "queue bit length"
attr unit b
vector 221 ResourceNetwork.baseStation.eth[0].queue queueingTime:vector ETV
attr interpolationmode none
attr recordingmode vector
attr source queueingTime(packetPulled)
attr title "queueing times"
attr unit s
vector 222 ResourceNetwork.baseStation.eth[0].queue incomingPacketLengths:vector ETV
attr interpolationmode none
attr recordingmode vector
attr source packetLength(packetPushStarted)
attr title "incoming packet lengths"
attr unit b
vector 223 ResourceNetwork.baseStation.eth[0].queue incomingDataRate:vector ETV
attr interpolationmode linear
attr recordingmode vector
attr source throughput(packetPushStarted)
attr title "incoming datarate"
attr unit bps
vector 224 ResourceNetwork.baseStation.eth[0].queue outgoingPacketLengths:vector ETV
attr interpolationmode none
attr recordingmode vector
attr source packetLength(packetPulled)
attr title "outgoing packet lengths"
attr unit b
vector 225 ResourceNetwork.baseStation.eth[0].queue outgoingDataRate:vector ETV
attr interpolationmode linear
attr recordingmode vector
attr source throughput(packetPulled)
attr title "outgoing datarate"
attr unit bps
vector 226 ResourceNetwork.baseStation.eth[0].queue droppedPacketLengthsQueueOverflow:vector ETV
attr interpolationmode none
attr recordingmode vector
attr source packetLength(packetDropReasonIsQueueOverflow(packetDropped))
attr title "dropped packet lengths: queue overflow"
attr unit b
vector 227 ResourceNetwork.baseStation.eth[0].queue flowQueueingTime:vector ETV
attr interpolationmode none
attr recordingmode vector
attr source queueingTime(demuxFlow(packetPulled))
attr title "flow queueing times"
attr unit s
vector 228 ResourceNetwork.baseStation.eth[0].queue flowIncomingDataRate:vector ETV
attr interpolationmode linear
attr recordingmode vector
attr source throughput(flowPacketLength(demuxFlow(packetPushStarted)))
attr title "flow specific incoming data rate"
attr unit bps
vector 229 ResourceNetwork.baseStation.eth[0].queue flowOutgoingDataRate:vector ETV
attr interpolationmode linear
attr recordingmode vector
attr source throughput(flowPacketLength(demuxFlow(packetPulled)))
attr title "flow specific outgoing data rate"
attr unit bps
vector 230 ResourceNetwork.baseStation.eth[0].mac txPk:vector(packetBytes) ETV
attr interpolationmode none
attr recordingmode vector(packetBytes)
attr source packetSentToLower
attr title "packets transmitted, packetBytes"
vector 231 ResourceNetwork.baseStation.eth[0].mac rxPkOk:vector(packetBytes) ETV
attr interpolationmode none
attr recordingmode vector(packetBytes)
attr source rxPkOk
attr title "packets received OK, packetBytes"
vector 232 ResourceNetwork.baseStation.eth[0].mac passedUpPk:vector(packetBytes) ETV
attr interpolationmode none
attr recordingmode vector(packetBytes)
attr source packetSentToUpper
attr title "packets passed to higher layer, packetBytes"
vector 233 ResourceNetwork.baseStation.eth[0].mac txPausePkUnits:vector ETV
attr interpolationmode none
attr recordingmode vector
attr title "pause units sent"
vector 234 ResourceNetwork.baseStation.eth[0].mac rxPausePkUnits:vector ETV
attr interpolationmode none
attr recordingmode vector
attr title "pause units received"
vector 235 ResourceNetwork.baseStation.eth[0].mac packetReceivedFromUpper:vector(packetBytes) ETV
attr interpolationmode none
attr recordingmode vector(packetBytes)
attr source packetReceivedFromUpper
attr title "packet bytes from higher layer, packetBytes"
vector 236 ResourceNetwork.baseStation.eth[0].mac packetDropIncorrectlyReceived:vector(packetBytes) ETV
attr interpolationmode none
attr recordingmode vector(packetBytes)
attr source packetDropReasonIsIncorrectlyReceived(packetDropped)
attr title "packet drop: incorrectly received, packetBytes"
vector 237 ResourceNetwork.baseStation.eth[0].mac packetDropInterfaceDown:vector(packetBytes) ETV
attr interpolationmode none
attr recordingmode vector(packetBytes)
attr source packetDropReasonIsInterfaceDown(packetDropped)
attr title "packet drop: interface down, packetBytes"
vector 238 ResourceNetwork.baseStation.eth[0].mac packetDropNotAddressedToUs:vector(packetBytes) ETV
attr interpolationmode none
attr recordingmode vector(packetBytes)
attr source packetDropReasonIsNotAddressedToUs(packetDropped)
attr title "packet drop: not addressed to us, packetBytes"
vector 239 ResourceNetwork.baseStation.eth[0] packetDropInterfaceDown:vector(packetBytes) ETV
attr interpolationmode none
attr recordingmode vector(packetBytes)
attr source packetDropReasonIsInterfaceDown(packetDropped)
attr title "packet drops: interface down, packetBytes"
vector 240 ResourceNetwork.baseStation.eth[0] packetDropNoCarrier:vector(packetBytes) ETV
attr interpolationmode none
attr recordingmode vector(packetBytes)
attr source packetDropReasonIsNoCarrier(packetDropped)
attr title "packet drops: no carrier, packetBytes"
vector 241 ResourceNetwork.baseStation.ipv4.ip packetDropAddressResolutionFailed:vector(packetBytes) ETV
attr interpolationmode none
attr recordingmode vector(packetBytes)
attr source packetDropReasonIsAddressResolutionFailed(packetDropped)
attr title "packet drop: address resolution failed, packetBytes"
vector 242 ResourceNetwork.baseStation.ipv4.ip packetDropHopLimitReached:vector(packetBytes) ETV
attr interpolationmode none
attr recordingmode vector(packetBytes)
attr source packetDropReasonIsHopLimitReached(packetDropped)
attr title "packet drop: hop limit reached, packetBytes"
vector 243 ResourceNetwork.baseStation.ipv4.ip packetDropForwardingDisabled:vector(packetBytes) ETV
attr interpolationmode none
attr recordingmode vector(packetBytes)
attr source packetDropReasonIsForwardingDisabled(packetDropped)
attr title "packet drop: forwarding disabled, packetBytes"
vector 244 ResourceNetwork.baseStation.ipv4.ip packetDropNoInterfaceFound:vector(packetBytes) ETV
attr interpolationmode none
attr recordingmode vector(packetBytes)
attr source packetDropReasonIsNoInterfaceFound(packetDropped)
attr title "packet drop: no interface found, packetBytes"
vector 245 ResourceNetwork.baseStation.ipv4.ip packetDropNoRouteFound:vector(packetBytes) ETV
attr interpolationmode none
attr recordingmode vector(packetBytes)
attr source packetDropReasonIsNoRouteFound(packetDropped)
attr title "packet drop: no route found, packetBytes"
vector 246 ResourceNetwork.baseStation.ipv4.ip packetDropUndefined:vector(packetBytes) ETV
attr interpolationmode none
attr recordingmode vector(packetBytes)
attr source packetDropReasonIsUndefined(packetDropped)
attr title "packet drop: undefined, packetBytes"
vector 247 ResourceNetwork.baseStation.udp packetSent:vector(packetBytes) ETV
attr interpolationmode none
attr recordingmode vector(packetBytes)
attr source packetSent
attr title "packets sent, packetBytes"
vector 248 ResourceNetwork.baseStation.udp packetReceived:vector(packetBytes) ETV
attr interpolationmode none
attr recordingmode vector(packetBytes)
attr source packetReceived
attr title "packets received, packetBytes"
vector 249 ResourceNetwork.baseStation.udp passedUpPk:vector(count) ETV
attr interpolationmode none
attr recordingmode vector(count)
attr source packetSentToUpper
attr title "packets passed up, count"
vector 250 ResourceNetwork.baseStation.udp droppedPkWrongPort:vector(count) ETV
attr interpolationmode none
attr recordingmode vector(count)
attr source packetDropReasonIsNoPortFound(packetDropped)
attr title "packets dropped (wrong port), count"
vector 251 ResourceNetwork.baseStation.udp droppedPkBadChecksum:vector(count) ETV
attr interpolationmode none
attr recordingmode vector(count)
attr source packetDropReasonIsIncorrectlyReceived(packetDropped)
attr title "packets dropped (checksum error), count"
vector 252 ResourceNetwork.coreRouter.ethernet encapPk:vector(packetBytes) ETV
attr interpolationmode none
attr recordingmode vector(packetBytes)
attr source encapPk
attr title "packets encapsulated, packetBytes"
vector 253 ResourceNetwork.coreRouter.ethernet decapPk:vector(packetBytes) ETV
attr interpolationmode none
attr recordingmode vector(packetBytes)
attr source decapPk
attr title "packets decapsulated, packetBytes"
vector 254 ResourceNetwork.coreRouter.ethernet pauseSent:vector ETV
attr recordingmode vector
attr title "pause sent"
vector 255 ResourceNetwork.coreRouter.lo[0].lo rcvdPkFromHl:vector(packetBytes) ETV
attr interpolationmode none
attr recordingmode vector(packetBytes)
attr source packetReceivedFromUpper
attr title "packets received from higher layer, packetBytes"
vector 256 ResourceNetwork.coreRouter.lo[0].lo passedUpPk:vector(packetBytes) ETV
attr interpolationmode none
attr recordingmode vector(packetBytes)
attr source packetSentToUpper
attr title "packets passed to higher layer, packetBytes"
vector 257 ResourceNetwork.coreRouter.lo[0] packetDropInterfaceDown:vector(packetBytes) ETV
attr interpolationmode none
attr recordingmode vector(packetBytes)
attr source packetDropReasonIsInterfaceDown(packetDropped)
attr title "packet drops: interface down, packetBytes"
vector 258 ResourceNetwork.coreRouter.lo[0] packetDropNoCarrier:vector(packetBytes) ETV
attr interpolationmode none
attr recordingmode vector(packetBytes)
attr source packetDropReasonIsNoCarrier(packetDropped)
attr title "packet drops: no carrier, packetBytes"
vector 259 ResourceNetwork.coreRouter.eth[0].queue queueLength:vector ETV
attr autoWarmupFilter false
attr interpolationmode sample-hold
attr recordingmode vector
attr source "warmup(atomic(constant0(packetPushEnded) + count(packetPushStarted) - count(packetPulled) - count(packetRemoved) - count(packetDropped)))"
attr title "queue length"
attr unit pk
vector 260 ResourceNetwork.coreRouter.eth[0].queue queueBitLength:vector ETV
attr autoWarmupFilter false
attr interpolationmode sample-hold
attr recordingmode vector
attr source "warmup(atomic(constant0(packetPushEnded) + sum(packetLength(packetPushStarted)) - sum(packetLength(packetPulled)) - sum(packetLength(packetRemoved)) - sum(packetLength(packetDropped))))"
attr title "queue bit length"
attr unit b
vector 261 ResourceNetwork.coreRouter.eth[0].queue queueingTime:vector ETV
attr interpolationmode none
attr recordingmode vector
attr source queueingTime(packetPulled)
attr title "queueing times"
attr unit s
vector 262 ResourceNetwork.coreRouter.eth[0].queue incomingPacketLengths:vector ETV
attr interpolationmode none
attr recordingmode vector
attr source packetLength(packetPushStarted)
attr title "incoming packet lengths"
attr unit b
vector 263 ResourceNetwork.coreRouter.eth[0].queue incomingDataRate:vector ETV
attr interpolationmode linear
attr recordingmode vector
attr source throughput(packetPushStarted)
attr title "incoming datarate"
attr unit bps
vector 264 ResourceNetwork.coreRouter.eth[0].queue outgoingPacketLengths:vector ETV
attr interpolationmode none
attr recordingmode vector
attr source packetLength(packetPulled)
attr title "outgoing packet lengths"
attr unit b
vector 265 ResourceNetwork.coreRouter.eth[0].queue outgoingDataRate:vector ETV
attr interpolationmode linear
attr recordingmode vector
attr source throughput(packetPulled)
attr title "outgoing datarate"
attr unit bps
vector 266 ResourceNetwork.coreRouter.eth[0].queue droppedPacketLengthsQueueOverflow:vector ETV
attr interpolationmode none
attr recordingmode vector
attr source packetLength(packetDropReasonIsQueueOverflow(packetDropped))
attr title "dropped packet lengths: queue overflow"
attr unit b
vector 267 ResourceNetwork.coreRouter.eth[0].queue flowQueueingTime:vector ETV
attr interpolationmode none
attr recordingmode vector
attr source queueingTime(demuxFlow(packetPulled))
attr title "flow queueing times"
attr unit s
vector 268 ResourceNetwork.coreRouter.eth[0].queue flowIncomingDataRate:vector ETV
attr interpolationmode linear
attr recordingmode vector
attr source throughput(flowPacketLength(demuxFlow(packetPushStarted)))
attr title "flow specific incoming data rate"
attr unit bps
vector 269 ResourceNetwork.coreRouter.eth[0].queue flowOutgoingDataRate:vector ETV
attr interpolationmode linear
attr recordingmode vector
attr source throughput(flowPacketLength(demuxFlow(packetPulled)))
attr title "flow specific outgoing data rate"
attr unit bps
vector 270 ResourceNetwork.coreRouter.eth[0].mac txPk:vector(packetBytes) ETV
attr interpolationmode none
attr recordingmode vector(packetBytes)
attr source packetSentToLower
attr title "packets transmitted, packetBytes"
vector 271 ResourceNetwork.coreRouter.eth[0].mac rxPkOk:vector(packetBytes) ETV
attr interpolationmode none
attr recordingmode vector(packetBytes)
attr source rxPkOk
attr title "packets received OK, packetBytes"
vector 272 ResourceNetwork.coreRouter.eth[0].mac passedUpPk:vector(packetBytes) ETV
attr interpolationmode none
attr recordingmode vector(packetBytes)
attr source packetSentToUpper
attr title "packets passed to higher layer, packetBytes"
vector 273 ResourceNetwork.coreRouter.eth[0].mac txPausePkUnits:vector ETV
attr interpolationmode none
attr recordingmode vector
attr title "pause units sent"
vector 274 ResourceNetwork.coreRouter.eth[0].mac rxPausePkUnits:vector ETV
attr interpolationmode none
attr recordingmode vector
attr title "pause units received"
vector 275 ResourceNetwork.coreRouter.eth[0].mac packetReceivedFromUpper:vector(packetBytes) ETV
attr interpolationmode none
attr recordingmode vector(packetBytes)
attr source packetReceivedFromUpper
attr title "packet bytes from higher layer, packetBytes"
vector 276 ResourceNetwork.coreRouter.eth[0].mac packetDropIncorrectlyReceived:vector(packetBytes) ETV
attr interpolationmode none
attr recordingmode vector(packetBytes)
attr source packetDropReasonIsIncorrectlyReceived(packetDropped)
attr title "packet drop: incorrectly received, packetBytes"
vector 277 ResourceNetwork.coreRouter.eth[0].mac packetDropInterfaceDown:vector(packetBytes) ETV
attr interpolationmode none
attr recordingmode vector(packetBytes)
attr source packetDropReasonIsInterfaceDown(packetDropped)
attr title "packet drop: interface down, packetBytes"
vector 278 ResourceNetwork.coreRouter.eth[0].mac packetDropNotAddressedToUs:vector(packetBytes) ETV
attr interpolationmode none
attr recordingmode vector(packetBytes)
attr source packetDropReasonIsNotAddressedToUs(packetDropped)
attr title "packet drop: not addressed to us, packetBytes"
vector 279 ResourceNetwork.coreRouter.eth[0] packetDropInterfaceDown:vector(packetBytes) ETV
attr interpolationmode none
attr recordingmode vector(packetBytes)
attr source packetDropReasonIsInterfaceDown(packetDropped)
attr title "packet drops: interface down, packetBytes"
vector 280 ResourceNetwork.coreRouter.eth[0] packetDropNoCarrier:vector(packetBytes) ETV
attr interpolationmode none
attr recordingmode vector(packetBytes)
attr source packetDropReasonIsNoCarrier(packetDropped)
attr title "packet drops: no carrier, packetBytes"
vector 281 ResourceNetwork.coreRouter.eth[1].queue queueLength:vector ETV
attr autoWarmupFilter false
attr interpolationmode sample-hold
attr recordingmode vector
attr source "warmup(atomic(constant0(packetPushEnded) + count(packetPushStarted) - count(packetPulled) - count(packetRemoved) - count(packetDropped)))"
attr title "queue length"
attr unit pk
vector 282 ResourceNetwork.coreRouter.eth[1].queue queueBitLength:vector ETV
attr autoWarmupFilter false
attr interpolationmode sample-hold
attr recordingmode vector
attr source "warmup(atomic(constant0(packetPushEnded) + sum(packetLength(packetPushStarted)) - sum(packetLength(packetPulled)) - sum(packetLength(packetRemoved)) - sum(packetLength(packetDropped))))"
attr title "queue bit length"
attr unit b
vector 283 ResourceNetwork.coreRouter.eth[1].queue queueingTime:vector ETV
attr interpolationmode none
attr recordingmode vector
attr source queueingTime(packetPulled)
attr title "queueing times"
attr unit s
vector 284 ResourceNetwork.coreRouter.eth[1].queue incomingPacketLengths:vector ETV
attr interpolationmode none
attr recordingmode vector
attr source packetLength(packetPushStarted)
attr title "incoming packet lengths"
attr unit b
vector 285 ResourceNetwork.coreRouter.eth[1].queue incomingDataRate:vector ETV
attr interpolationmode linear
attr recordingmode vector
attr source throughput(packetPushStarted)
attr title "incoming datarate"
attr unit bps
vector 286 ResourceNetwork.coreRouter.eth[1].queue outgoingPacketLengths:vector ETV
attr interpolationmode none
attr recordingmode vector
attr source packetLength(packetPulled)
attr title "outgoing packet lengths"
attr unit b
vector 287 ResourceNetwork.coreRouter.eth[1].queue outgoingDataRate:vector ETV
attr interpolationmode linear
attr recordingmode vector
attr source throughput(packetPulled)
attr title "outgoing datarate"
attr unit bps
vector 288 ResourceNetwork.coreRouter.eth[1].queue droppedPacketLengthsQueueOverflow:vector ETV
attr interpolationmode none
attr recordingmode vector
attr source packetLength(packetDropReasonIsQueueOverflow(packetDropped))
attr title "dropped packet lengths: queue overflow"
attr unit b
vector 289 ResourceNetwork.coreRouter.eth[1].queue flowQueueingTime:vector ETV
attr interpolationmode none
attr recordingmode vector
attr source queueingTime(demuxFlow(packetPulled))
attr title "flow queueing times"
attr unit s
vector 290 ResourceNetwork.coreRouter.eth[1].queue flowIncomingDataRate:vector ETV
attr interpolationmode linear
attr recordingmode vector
attr source throughput(flowPacketLength(demuxFlow(packetPushStarted)))
attr title "flow specific incoming data rate"
attr unit bps
vector 291 ResourceNetwork.coreRouter.eth[1].queue flowOutgoingDataRate:vector ETV
attr interpolationmode linear
attr recordingmode vector
attr source throughput(flowPacketLength(demuxFlow(packetPulled)))
attr title "flow specific outgoing data rate"
attr unit bps
vector 292 ResourceNetwork.coreRouter.eth[1].mac txPk:vector(packetBytes) ETV
attr interpolationmode none
attr recordingmode vector(packetBytes)
attr source packetSentToLower
attr title "packets transmitted, packetBytes"
vector 293 ResourceNetwork.coreRouter.eth[1].mac rxPkOk:vector(packetBytes) ETV
attr interpolationmode none
attr recordingmode vector(packetBytes)
attr source rxPkOk
attr title "packets received OK, packetBytes"
vector 294 ResourceNetwork.coreRouter.eth[1].mac passedUpPk:vector(packetBytes) ETV
attr interpolationmode none
attr recordingmode vector(packetBytes)
attr source packetSentToUpper
attr title "packets passed to higher layer, packetBytes"
vector 295 ResourceNetwork.coreRouter.eth[1].mac txPausePkUnits:vector ETV
attr interpolationmode none
attr recordingmode vector
attr title "pause units sent"
vector 296 ResourceNetwork.coreRouter.eth[1].mac rxPausePkUnits:vector ETV
attr interpolationmode none
attr recordingmode vector
attr title "pause units received"
vector 297 ResourceNetwork.coreRouter.eth[1].mac packetReceivedFromUpper:vector(packetBytes) ETV
attr interpolationmode none
attr recordingmode vector(packetBytes)
attr source packetReceivedFromUpper
attr title "packet bytes from higher layer, packetBytes"
vector 298 ResourceNetwork.coreRouter.eth[1].mac packetDropIncorrectlyReceived:vector(packetBytes) ETV
attr interpolationmode none
attr recordingmode vector(packetBytes)
attr source packetDropReasonIsIncorrectlyReceived(packetDropped)
attr title "packet drop: incorrectly received, packetBytes"
[...]
attr interpolationmode none
attr recordingmode vector(packetBytes)
attr source packetDropReasonIsNoCarrier(packetDropped)
attr title "packet drops: no carrier, packetBytes"
vector 338 ResourceNetwork.edgeServer.ipv4.ip packetDropAddressResolutionFailed:vector(packetBytes) ETV
attr interpolationmode none
attr recordingmode vector(packetBytes)
attr source packetDropReasonIsAddressResolutionFailed(packetDropped)
attr title "packet drop: address resolution failed, packetBytes"
vector 339 ResourceNetwork.edgeServer.ipv4.ip packetDropHopLimitReached:vector(packetBytes) ETV
attr interpolationmode none
attr recordingmode vector(packetBytes)
attr source packetDropReasonIsHopLimitReached(packetDropped)
attr title "packet drop: hop limit reached, packetBytes"
vector 340 ResourceNetwork.edgeServer.ipv4.ip packetDropForwardingDisabled:vector(packetBytes) ETV
attr interpolationmode none
attr recordingmode vector(packetBytes)
attr source packetDropReasonIsForwardingDisabled(packetDropped)
attr title "packet drop: forwarding disabled, packetBytes"
vector 341 ResourceNetwork.edgeServer.ipv4.ip packetDropNoInterfaceFound:vector(packetBytes) ETV
attr interpolationmode none
attr recordingmode vector(packetBytes)
attr source packetDropReasonIsNoInterfaceFound(packetDropped)
attr title "packet drop: no interface found, packetBytes"
vector 342 ResourceNetwork.edgeServer.ipv4.ip packetDropNoRouteFound:vector(packetBytes) ETV
attr interpolationmode none
attr recordingmode vector(packetBytes)
attr source packetDropReasonIsNoRouteFound(packetDropped)
attr title "packet drop: no route found, packetBytes"
vector 343 ResourceNetwork.edgeServer.ipv4.ip packetDropUndefined:vector(packetBytes) ETV
attr interpolationmode none
attr recordingmode vector(packetBytes)
attr source packetDropReasonIsUndefined(packetDropped)
attr title "packet drop: undefined, packetBytes"
vector 344 ResourceNetwork.edgeServer.udp packetSent:vector(packetBytes) ETV
attr interpolationmode none
attr recordingmode vector(packetBytes)
attr source packetSent
attr title "packets sent, packetBytes"
vector 345 ResourceNetwork.edgeServer.udp packetReceived:vector(packetBytes) ETV
attr interpolationmode none
attr recordingmode vector(packetBytes)
attr source packetReceived
attr title "packets received, packetBytes"
vector 346 ResourceNetwork.edgeServer.udp passedUpPk:vector(count) ETV
attr interpolationmode none
attr recordingmode vector(count)
attr source packetSentToUpper
attr title "packets passed up, count"
vector 347 ResourceNetwork.edgeServer.udp droppedPkWrongPort:vector(count) ETV
attr interpolationmode none
attr recordingmode vector(count)
attr source packetDropReasonIsNoPortFound(packetDropped)
attr title "packets dropped (wrong port), count"
vector 348 ResourceNetwork.edgeServer.udp droppedPkBadChecksum:vector(count) ETV
attr interpolationmode none
attr recordingmode vector(count)
attr source packetDropReasonIsIncorrectlyReceived(packetDropped)
attr title "packets dropped (checksum error), count"
vector 349 ResourceNetwork latencyOverTime:vector ETV
attr recordingmode vector
attr source latency
vector 350 ResourceNetwork systemResourceUtilisationOverTime:vector ETV
attr recordingmode vector
attr source resourceUtilisation
vector 351 ResourceNetwork energyConsumptionOverTime:vector ETV
attr recordingmode vector
attr source energyConsumption
vector 352 ResourceNetwork tasksProcessedOverTime:vector ETV
attr recordingmode vector
attr source tasksProcessed
vector 353 ResourceNetwork maxQueueLengthOverTime:vector ETV
attr recordingmode vector
attr source maxQueueLength
vector 354 ResourceNetwork parallelTasksOverTime:vector ETV
attr recordingmode vector
attr source parallelTasks
4	93287 1369 175 26836 0.089260381577 13.589260381577 55 1 1 55 55
6	94656 1346 826 26836 0.339260381577 13.589260381577 54 1 1 54 54
7	96002 2782 0 27072 0 13.689260381577 115 0 1 55 55
8	98784 2892 0 27072 0 13.689260381577 115 0 256 14080 3604480
9	101676 1371 404 27072 0.189260381577 13.689260381577 55 0 0 0 0
10	103047 1536 402 27070 0.189260381577 13.689260381577 55 256 256 14080 3604480
11	104583 2168 402 27070 0.1 13.6 136 0 2560 138240 353894400
12	106751 1536 404 27072 0.189260381577 13.689260381577 55 256 256 14080 3604480
13	108287 2168 404 27072 0.1 13.6 136 0 2560 138240 353894400
18	110455 1756 410 27078 0.189298381577 13.689298381577 55 3.8e-05 3.8e-05 0.00209 7.942e-08
19	112211 2870 0 27078 0 13.689298381577 112 0 1 55 55
20	115081 1453 402 27070 0.189260381577 13.689260381577 55 0 31 714 15574
21	116534 2870 0 27071 0 13.689260381577 112 0 1 55 55
22	119404 11426 0 27079 0 13.689298381577 442 0 2 220 440
24	130830 10 0 0 0 0 1 31 31 31 961
25	130840 1481 410 27078 0.189298381577 13.689298381577 55 32 32 1760 56320
27	132321 1481 410 27078 0.189298381577 13.689298381577 55 32 32 1760 56320
28	133802 1481 410 27078 0.189298381577 13.689298381577 55 32 32 1760 56320
30	135283 1481 410 27078 0.189298381577 13.689298381577 55 32 32 1760 56320
41	136764 2870 0 27078 0 13.689298381577 112 0 1 55 55
42	139634 1811 404 27072 0.189260381577 13.689260381577 55 24000000 24000000 1320000000 3.168e+16
45	141445 1481 404 27072 0.189260381577 13.689260381577 55 32 32 1760 56320
55	142926 2879 0 27079 0 13.689298381577 113 0 3 277 719
56	145805 2861 0 27079 0 13.689298381577 111 0 1 56 56
57	148666 5704 405 27079 0.189260381577 13.689298381577 220 0 2 220 330
58	154370 1433 0 26839 0 13.589260381577 56 0 0 0 0
69	155803 9 0 0 0 0 1 0 0 0 0
70	155812 9 0 0 0 0 1 0 0 0 0
71	155821 9 0 0 0 0 1 0 0 0 0
76	155830 1400 588 26712 0.267531900527 13.517531900527 54 1 1 54 54
78	157230 1376 1316 26712 0.517531900527 13.517531900527 53 1 1 53 53
79	158606 2845 0 26901 0 13.617531900527 113 0 1 54 54
80	161451 2953 0 26901 0 13.617531900527 113 0 256 13824 3538944
81	164404 1400 901 26901 0.367531900527 13.617531900527 54 0 0 0 0
82	165804 1508 899 26899 0.367531900527 13.617531900527 54 256 256 13824 3538944
83	167312 2161 899 26899 0.1 13.6 136 0 2560 135680 347340800
84	169473 1508 901 26901 0.367531900527 13.617531900527 54 256 256 13824 3538944
85	170981 2161 901 26901 0.1 13.6 136 0 2560 135680 347340800
90	173142 1724 907 26907 0.367569900527 13.617569900527 54 3.8e-05 3.8e-05 0.002052 7.7976e-08
91	174866 2818 0 26907 0 13.617569900527 110 0 1 54 54
92	177684 1437 899 26899 0.367531900527 13.617531900527 54 1 31 771 14155
93	179121 2818 0 26900 0 13.617531900527 110 0 1 54 54
94	181939 11218 0 26908 0 13.617569900527 434 0 2 216 432
96	193157 10 0 0 0 0 1 31 31 31 961
97	193167 1454 907 26907 0.367569900527 13.617569900527 54 32 32 1728 55296
99	194621 1454 907 26907 0.367569900527 13.617569900527 54 32 32 1728 55296
100	196075 1508 907 26907 0.367569900527 13.617569900527 54 32 32 1728 55296
102	197583 1508 907 26907 0.367569900527 13.617569900527 54 32 32 1728 55296
113	199091 2928 0 26907 0 13.617569900527 110 0 1 54 54
114	202019 1832 901 26901 0.367531900527 13.617531900527 54 24000000 24000000 1296000000 3.1104e+16
117	203851 1508 901 26901 0.367531900527 13.617531900527 54 32 32 1728 55296
127	205359 2938 0 26908 0 13.617569900527 111 0 3 272 706
128	208297 2918 0 26908 0 13.617569900527 109 0 1 55 55
129	211215 5816 902 26908 0.367531900527 13.617569900527 216 0 2 216 324
130	217031 1464 0 26715 0 13.517531900527 55 0 0 0 0
141	218495 10 0 0 0 0 1 0 0 0 0
142	218505 10 0 0 0 0 1 0 0 0 0
143	218515 10 0 0 0 0 1 0 0 0 0
148	218525 52828 0 27135 0 13.712060013942 1982 0 11 4105 19143
149	271353 57866 0 27135 0 13.712060013942 1982 0 92576 34547680 1355880619008
150	329219 41195 6 27135 0.011724077117 13.712060013942 1138 0 0.090303252125 17.578416553136 0.68846825742931
151	370414 33822 6 27135 0.011724077117 13.712060013942 1138 8416 8416 9577408 80603465728
152	404236 2864 237 27135 0.1 13.7 137 84160 1767360 95689920 76573292441600
153	407100 33808 6 27135 0.011724077117 13.712060013942 1138 8416 8416 9577408 80603465728
154	440908 2851 211 27135 0.1 13.7 137 84160 1009920 95689920 72635196928000
160	443759 33808 6 27135 0.011724077117 13.712060013942 1138 1075 1075 1223350 1315101250
161	477567 33808 6 27135 0.011724077117 13.712060013942 1138 1052 1052 1197176 1259429152
166	511375 60795 0 27135 0 13.712060013942 2278 0 3 5690 14794
167	572170 60775 0 27135 0 13.712060013942 2276 0 1 1138 1138
168	632945 121530 6 27136 0.011724077117 13.712060013942 4550 0 2 4551 6827
178	754475 33822 4 27133 0.011724077117 13.712060013942 1138 1032 1032 1174416 1211997312
180	788297 10 0 0 0 0 1 0 0 0 0
181	788307 10 0 0 0 0 1 0 0 0 0
182	788317 10 0 0 0 0 1 0 0 0 0
188	788327 23561 19 27116 0.020398830448 13.706397920737 794 1052 1052 835288 878722976
195	811888 50 0 0 0 0 5 0 0 0 0
196	811938 50 0 0 0 0 5 0 0 0 0
206	811988 23561 17 27114 0.020398830448 13.706397920737 794 1052 1052 835288 878722976
209	835549 33749 17 27114 0.020398830448 13.706397920737 1137 1075 1075 1222275 1313945625
210	869298 10188 43 27044 0.029072830448 13.676128610434 343 1075 1075 368725 396379375
213	879486 30 0 0 0 0 3 0 2 2 4
214	879516 60679 0 27113 0 13.706397920737 2275 1 3 5388 13888
219	940195 21229 0 27117 0 13.706397920737 799 0 0 0 0
220	961424 21229 0 27117 0 13.706397920737 799 0 0 0 0
221	982653 21179 20 27117 0.020398830448 13.706397920737 794 0 0 0 0
222	1003832 23561 20 27117 0.020398830448 13.706397920737 794 8560 8560 6796640 58179238400
223	1027393 2837 218 27117 0.1 13.7 137 85600 941600 67880800 38432003200000
224	1030230 23561 20 27117 0.020398830448 13.706397920737 794 8560 8560 6796640 58179238400
225	1053791 2837 218 27117 0.1 13.7 137 85600 941600 67880800 38432003200000
230	1056628 23561 21 27118 0.021261230448 13.707260320737 794 1070 1070 849580 909050600
235	1080189 23561 20 27117 0.020398830448 13.706397920737 794 1070 1070 849580 909050600
249	1103750 10 0 0 0 0 1 0 0 0 0
250	1103760 10 0 0 0 0 1 0 0 0 0
251	1103770 10 0 0 0 0 1 0 0 0 0
252	1103780 23561 25 27122 0.021261280448 13.707260370737 794 1052 1052 835288 878722976
253	1127341 23561 23 27120 0.021261280448 13.707260370737 794 1052 1052 835288 878722976
259	1150902 50 0 0 0 0 5 0 0 0 0
260	1150952 50 0 0 0 0 5 0 0 0 0
271	1151002 23561 22 27119 0.021261280448 13.707260370737 794 1070 1070 849580 909050600
272	1174563 23561 22 27119 0.021261280448 13.707260370737 794 1070 1070 849580 909050600
281	1198124 21229 0 27123 0 13.707260370737 799 0 0 0 0
282	1219353 21229 0 27123 0 13.707260370737 799 0 0 0 0
283	1240582 21179 26 27123 0.021261280448 13.707260370737 794 0 0 0 0
284	1261761 23561 26 27123 0.021261280448 13.707260370737 794 8560 8560 6796640 58179238400
285	1285322 2837 224 27123 0.1 13.7 137 85600 941600 67880800 38373384320000
286	1288159 23561 26 27123 0.021261280448 13.707260370737 794 8560 8560 6796640 58179238400
287	1311720 2837 224 27123 0.1 13.7 137 85600 941600 67880800 38373384320000
292	1314557 23561 28 27125 0.022123680448 13.708122770737 794 1070 1070 849580 909050600
297	1338118 23561 26 27123 0.021261280448 13.707260370737 794 1070 1070 849580 909050600
310	1361679 23561 30 27127 0.022123730448 13.708122820737 794 1052 1052 835288 878722976
316	1385240 50 0 0 0 0 5 0 0 0 0
317	1385290 50 0 0 0 0 5 0 0 0 0
328	1385340 23561 29 27126 0.022123730448 13.708122820737 794 1070 1070 849580 909050600
329	1408901 23561 29 27126 0.022123730448 13.708122820737 794 1070 1070 849580 909050600
345	1432462 23562 32 27129 0.022123730448 13.708122820737 794 1032 1032 819408 845629056
346	1456024 22670 0 27129 0 13.708122820737 795 0 794 315615 167170745
347	1478694 10 0 0 0 0 1 0 0 0 0
348	1478704 10 0 0 0 0 1 0 0 0 0
349	1478714 1084 2378 25995 1.022123730448 13.039471730448 27 1010.399653331 12726.647624846 186998.84166271 1644116280.6319
350	1479798 25066 33 27130 0.022123730448 13.708122820737 821 0.311 0.975 690.177 586.078603
351	1504864 945 2378 25995 1.022123730448 13.039471730448 27 302000000 499000000 10930000000 4.5415e+18
352	1505809 747 2378 25995 1.022123730448 13.039471730448 27 1 27 378 6930
353	1506556 23433 33 27130 0.022123730448 13.708122820737 821 0 764 314581 160470455
354	1529989 729 2378 25995 1.022123730448 13.039471730448 27 1 2 29 33
166	1530718 28 27139 27139 13.720734013942 13.720734013942 1 2 2 2 4
167	1530746 28 27139 27139 13.720734013942 13.720734013942 1 1 1 1 1
168	1530774 56 27139 27139 13.720734013942 13.720734013942 2 0 1 1 1
188	1530830 31 27143 27143 13.720734767273 13.720734767273 1 1052 1052 1052 1106704
206	1530861 31 27141 27141 13.720734767273 13.720734767273 1 1052 1052 1052 1106704
209	1530892 31 27141 27141 13.720734767273 13.720734767273 1 1075 1075 1075 1155625
214	1530923 56 27137 27140 13.712060767273 13.720734767273 2 1 3 4 10
4	1530979 26 27412 27412 13.839260381577 13.839260381577 1 1 1 1 1
6	1531005 26 27412 27412 13.839260381577 13.839260381577 1 1 1 1 1
58	1531031 27 27415 27415 13.839260381577 13.839260381577 1 0 0 0 0
76	1531058 27 27227 27227 13.767531900527 13.767531900527 1 1 1 1 1
78	1531085 27 27227 27227 13.767531900527 13.767531900527 1 1 1 1 1
79	1531112 54 27451 27453 13.867531900527 13.867531900527 2 0 1 1 1
80	1531166 56 27451 27453 13.867531900527 13.867531900527 2 0 256 256 65536
81	1531222 27 27453 27453 13.867531900527 13.867531900527 1 0 0 0 0
82	1531249 29 27451 27451 13.867531900527 13.867531900527 1 256 256 256 65536
83	1531278 35 27451 27451 13.7 13.8 2 0 2560 2560 6553600
84	1531313 29 27453 27453 13.867531900527 13.867531900527 1 256 256 256 65536
85	1531342 35 27453 27453 13.7 13.8 2 0 2560 2560 6553600
90	1531377 33 27459 27459 13.867569900527 13.867569900527 1 3.8e-05 3.8e-05 3.8e-05 1.444e-09
91	1531410 54 27453 27459 13.867531900527 13.867569900527 2 0 1 1 1
92	1531464 28 27451 27451 13.867531900527 13.867531900527 1 25 25 25 625
93	1531492 54 27451 27452 13.867531900527 13.867531900527 2 0 1 1 1
94	1531546 216 27451 27460 13.867531900527 13.867569900527 8 0 2 4 8
97	1531762 28 27459 27459 13.867569900527 13.867569900527 1 32 32 32 1024
99	1531790 28 27459 27459 13.867569900527 13.867569900527 1 32 32 32 1024
100	1531818 29 27459 27459 13.867569900527 13.867569900527 1 32 32 32 1024
102	1531847 29 27459 27459 13.867569900527 13.867569900527 1 32 32 32 1024
113	1531876 56 27453 27459 13.867531900527 13.867569900527 2 0 1 1 1
114	1531932 35 27453 27453 13.867531900527 13.867531900527 1 24000000 24000000 24000000 5.76e+14
117	1531967 29 27453 27453 13.867531900527 13.867531900527 1 32 32 32 1024
127	1531996 56 27454 27460 13.867531900527 13.867569900527 2 2 3 5 13
128	1532052 56 27454 27460 13.867531900527 13.867569900527 2 0 1 1 1
129	1532108 112 27454 27460 13.867531900527 13.867569900527 4 0 2 4 6
130	1532220 28 27230 27230 13.767531900527 13.767531900527 1 0 0 0 0
148	1532248 728 27163 27543 13.741163326581 13.922437604255 26 0 5 54 190
149	1532976 797 27163 27543 13.741163326581 13.922437604255 26 0 42080 454464 13457520640
150	1533773 578 27163 27543 13.741163326581 13.922437604255 16 0 0.042332544934 0.240025020372 0.0071378737224535
151	1534351 496 27163 27543 13.741163326581 13.922437604255 16 8416 8416 134656 1133264896
152	1534847 45 27419 27516 13.8 13.9 2 252480 1009920 1262400 1083684556800
153	1534892 496 27163 27543 13.741163326581 13.922437604255 16 8416 8416 134656 1133264896
154	1535388 44 27315 27516 13.8 13.9 2 589120 673280 1262400 800368332800
160	1535432 496 27163 27543 13.741163326581 13.922437604255 16 1075 1075 17200 18490000
161	1535928 496 27163 27543 13.741163326581 13.922437604255 16 1052 1052 16832 17707264
166	1536424 868 27163 27543 13.741163326581 13.922437604255 31 2 3 78 204
167	1537292 868 27163 27543 13.741163326581 13.922437604255 31 0 1 15 15
168	1538160 1736 27163 27544 13.741163326581 13.922437604255 62 0 2 63 95
178	1539896 496 27161 27541 13.741163326581 13.922437604255 16 1032 1032 16512 17040384
188	1540392 372 27193 27523 13.758512079912 13.911501808452 12 1052 1052 12624 13280448
206	1540764 372 27191 27521 13.758512079912 13.911501808452 12 1052 1052 12624 13280448
209	1541136 465 27174 27521 13.749838079912 13.911501808452 15 1075 1075 16125 17334375
210	1541601 93 27174 27319 13.749838079912 13.801882079912 3 1075 1075 3225 3466875
214	1541694 868 27165 27545 13.741164079912 13.922438357586 31 1 3 73 189
219	1542562 364 27144 27524 13.720734767273 13.911501808452 13 0 0 0 0
220	1542926 364 27144 27524 13.720734767273 13.911501808452 13 0 0 0 0
221	1543290 364 27144 27524 13.720734767273 13.911501808452 13 0 0 0 0
222	1543654 403 27144 27524 13.720734767273 13.911501808452 13 8560 8560 111280 952556800
223	1544057 44 27328 27524 13.8 13.9 2 513600 599200 1112800 622825600000
224	1544101 403 27144 27524 13.720734767273 13.911501808452 13 8560 8560 111280 952556800
225	1544504 44 27328 27524 13.8 13.9 2 513600 599200 1112800 622825600000
230	1544548 403 27145 27525 13.721597167273 13.912364208452 13 1070 1070 13910 14883700
235	1544951 403 27144 27524 13.720734767273 13.911501808452 13 1070 1070 13910 14883700
252	1545354 403 27149 27529 13.721597217273 13.912364258452 13 1052 1052 13676 14387152
253	1545757 403 27147 27527 13.721597217273 13.912364258452 13 1052 1052 13676 14387152
271	1546160 403 27146 27526 13.721597217273 13.912364258452 13 1070 1070 13910 14883700
272	1546563 403 27146 27526 13.721597217273 13.912364258452 13 1070 1070 13910 14883700
281	1546966 364 27150 27530 13.721597217273 13.912364258452 13 0 0 0 0
282	1547330 364 27150 27530 13.721597217273 13.912364258452 13 0 0 0 0
283	1547694 364 27150 27530 13.721597217273 13.912364258452 13 0 0 0 0
284	1548058 403 27150 27530 13.721597217273 13.912364258452 13 8560 8560 111280 952556800
285	1548461 44 27334 27530 13.8 13.9 2 513600 599200 1112800 622825600000
286	1548505 403 27150 27530 13.721597217273 13.912364258452 13 8560 8560 111280 952556800
287	1548908 44 27334 27530 13.8 13.9 2 513600 599200 1112800 622825600000
292	1548952 403 27152 27532 13.722459617273 13.913226658452 13 1070 1070 13910 14883700
297	1549355 403 27150 27530 13.721597217273 13.912364258452 13 1070 1070 13910 14883700
310	1549758 403 27154 27534 13.722459667273 13.913226708452 13 1052 1052 13676 14387152
328	1550161 403 27153 27533 13.722459667273 13.913226708452 13 1070 1070 13910 14883700
329	1550564 403 27153 27533 13.722459667273 13.913226708452 13 1070 1070 13910 14883700
345	1550967 403 27156 27536 13.722459667273 13.913226708452 13 1032 1032 13416 13845312
346	1551370 390 27156 27536 13.722459667273 13.913226708452 13 795 807 10413 8340995
350	1551760 416 27157 27537 13.722459667273 13.913226708452 13 0.927 0.927 12.051 11.171277
353	1552176 390 27157 27537 13.722459667273 13.913226708452 13 765 777 10023 7727915
11	1552566 78 27545 27545 13.7 13.922438392969 4 0 2560 2560 6553600
13	1552644 78 27545 27545 13.7 13.922438392969 4 0 2560 2560 6553600
83	1552722 46 27545 27545 13.9 13.922438392969 2 0 2560 2560 6553600
85	1552768 46 27545 27545 13.9 13.922438392969 2 0 2560 2560 6553600
152	1552814 42 27545 27545 13.922438392969 13.922438392969 1 750142.84771884 750142.84771884 750142.84771884 562714291983.73
154	1552856 42 27545 27545 13.922438392969 13.922438392969 1 750142.84771884 750142.84771884 750142.84771884 562714291983.73
184	1552898 2266 27545 27545 0.1 13.922438392969 140 0 0 0 0
199	1555164 2266 27545 27545 0.1 13.922438392969 140 0 0 0 0
201	1557430 2266 27545 27545 0.1 13.922438392969 140 0 0 0 0
223	1559696 42 27545 27545 13.922438392969 13.922438392969 1 381488.99575055 381488.99575055 381488.99575055 145533853878.76
225	1559738 42 27545 27545 13.922438392969 13.922438392969 1 381488.99575055 381488.99575055 381488.99575055 145533853878.76
263	1559780 2266 27545 27545 0.1 13.922438392969 140 0 0 0 0
265	1562046 2266 27545 27545 0.1 13.922438392969 140 0 0 0 0
285	1564312 42 27545 27545 13.922438392969 13.922438392969 1 381488.99575055 381488.99575055 381488.99575055 145533853878.76
287	1564354 42 27545 27545 13.922438392969 13.922438392969 1 381488.99575055 381488.99575055 381488.99575055 145533853878.76
320	1564396 2266 27545 27545 0.1 13.922438392969 140 0 0 0 0
322	1566662 2266 27545 27545 0.1 13.922438392969 140 0 0 0 0

