version 3
run General-0-20260226-20:28:34-2074
attr configname General
attr datetime 20260226-20:28:34
attr datetimef 20260226-202834
attr experiment General
attr inifile omnetpp.ini
attr iterationvars ""
attr iterationvarsd ""
attr iterationvarsf ""
attr measurement ""
attr network ResourceNetwork
attr processid 2074
attr repetition 0
attr replication #0
attr resultdir results
attr runnumber 0
attr seedset 0
config image-path ../../../default_workspace/inet-4.5.4/images
config description "Simple sim where two nodes communicate wirelessly."
config network ResourceNetwork
config sim-time-limit 60s
config *.*.ipv4.arp.typename GlobalArp
config *.mdAutonomousVehicle[*].numApps 1
config *.mdAutonomousVehicle[*].app[0].typename TrafficGenerator
config *.mdAutonomousVehicle[*].app[0].destAddresses "\"edgeServer\""
config *.mdAutonomousVehicle[*].app[0].destPort 5000
config *.mdAutonomousVehicle[*].app[0].messageLength 1024B
config *.mdAutonomousVehicle[*].app[0].sendInterval exponential(0.000032s)
config *.mdAutonomousVehicle[*].app[0].packetName "\"TaskData\""
config *.mdAutonomousVehicle[*].app[0].minRequiredCPUCycles 300
config *.mdAutonomousVehicle[*].app[0].maxRequiredCPUCycles 500
config *.mdAutonomousVehicle[*].app[0].minDeadlineLatency 0.5
config *.mdAutonomousVehicle[*].app[0].maxDeadlineLatency 20
config *.edgeServer*.numApps 1
config *.edgeServer*.app[0].typename ResourceAllocatorApp
config *.edgeServer*.app[0].localPort 5000
config *.host*.wlan[0].typename AckingWirelessInterface
config *.host*.wlan[0].mac.useAck false
config *.host*.wlan[0].mac.fullDuplex false
config *.host*.wlan[0].radio.transmitter.communicationRange 500m
config *.host*.wlan[0].mac.headerLength 23B
config *.mdMobilePhone.wlan[0].typename AckingWirelessInterface
config *.mdMobilePhone.wlan[0].mac.useAck false
config *.mdMobilePhone.wlan[0].mac.fullDuplex false
config *.mdMobilePhone.wlan[0].radio.transmitter.communicationRange 500m
config *.mdMobilePhone.wlan[0].mac.headerLength 23B
config *.mdAutonomousVehicle[*].wlan[0].typename AckingWirelessInterface
config *.mdAutonomousVehicle[*].wlan[0].mac.useAck false
config *.mdAutonomousVehicle[*].wlan[0].mac.fullDuplex false
config *.mdAutonomousVehicle[*].wlan[0].radio.transmitter.communicationRange 500m
config *.mdAutonomousVehicle[*].wlan[0].mac.headerLength 23B
config *.baseStation.forwarding true
config *.baseStation*.wlan[0].typename AckingWirelessInterface
config *.baseStation*.wlan[0].mac.useAck false
config *.baseStation*.wlan[0].mac.fullDuplex false
config *.baseStation*.wlan[0].radio.transmitter.communicationRange 500m
config *.baseStation*.wlan[0].mac.headerLength 23B
config *.host*.**.bitrate 1Mbps
config *.baseStation*.wlan[0].bitrate 1Mbps
config *.mdMobilePhone.wlan[0].bitrate 1Mbps
config *.mdAutonomousVehicle*.wlan[0].bitrate 2500Mbps
config **.radio.displayCommunicationRange true
config *.visualizer.mediumVisualizer.displaySignals true
config *.visualizer.physicalLinkVisualizer.displayLinks true
config *.visualizer.physicalLinkVisualizer.packetFilter "\"TaskData\""
config *.visualizer.mobilityVisualizer.displayVelocities true
config *.visualizer.mobilityVisualizer.displayMovementTrails true
config *.hostA.mobility.typename LinearMobility
config *.hostA.mobility.speed 12mps
config *.hostA.mobility.initialMovementHeading 200deg

vector 0 ResourceNetwork.hostA.lo[0].lo rcvdPkFromHl:vector(packetBytes) ETV
attr interpolationmode none
attr recordingmode vector(packetBytes)
attr source packetReceivedFromUpper
attr title "packets received from higher layer, packetBytes"
vector 1 ResourceNetwork.hostA.lo[0].lo passedUpPk:vector(packetBytes) ETV
attr interpolationmode none
attr recordingmode vector(packetBytes)
attr source packetSentToUpper
attr title "packets passed to higher layer, packetBytes"
vector 2 ResourceNetwork.hostA.lo[0] packetDropInterfaceDown:vector(packetBytes) ETV
attr interpolationmode none
attr recordingmode vector(packetBytes)
attr source packetDropReasonIsInterfaceDown(packetDropped)
attr title "packet drops: interface down, packetBytes"
vector 3 ResourceNetwork.hostA.lo[0] packetDropNoCarrier:vector(packetBytes) ETV
attr interpolationmode none
attr recordingmode vector(packetBytes)
attr source packetDropReasonIsNoCarrier(packetDropped)
attr title "packet drops: no carrier, packetBytes"
vector 4 ResourceNetwork.hostA.wlan[0].queue queueLength:vector ETV
attr autoWarmupFilter false
attr interpolationmode sample-hold
attr recordingmode vector
attr source "warmup(atomic(constant0(packetPushEnded) + count(packetPushStarted) - count(packetPulled) - count(packetRemoved) - count(packetDropped)))"
attr title "queue length"
attr unit pk
vector 5 ResourceNetwork.hostA.wlan[0].queue queueBitLength:vector ETV
attr autoWarmupFilter false
attr interpolationmode sample-hold
attr recordingmode vector
attr source "warmup(atomic(constant0(packetPushEnded) + sum(packetLength(packetPushStarted)) - sum(packetLength(packetPulled)) - sum(packetLength(packetRemoved)) - sum(packetLength(packetDropped))))"
attr title "queue bit length"
attr unit b
vector 6 ResourceNetwork.hostA.wlan[0].queue queueingTime:vector ETV
attr interpolationmode none
attr recordingmode vector
attr source queueingTime(packetPulled)
attr title "queueing times"
attr unit s
vector 7 ResourceNetwork.hostA.wlan[0].queue incomingPacketLengths:vector ETV
attr interpolationmode none
attr recordingmode vector
attr source packetLength(packetPushStarted)
attr title "incoming packet lengths"
attr unit b
vector 8 ResourceNetwork.hostA.wlan[0].queue incomingDataRate:vector ETV
attr interpolationmode linear
attr recordingmode vector
attr source throughput(packetPushStarted)
attr title "incoming datarate"
attr unit bps
vector 9 ResourceNetwork.hostA.wlan[0].queue outgoingPacketLengths:vector ETV
attr interpolationmode none
attr recordingmode vector
attr source packetLength(packetPulled)
attr title "outgoing packet lengths"
attr unit b
vector 10 ResourceNetwork.hostA.wlan[0].queue outgoingDataRate:vector ETV
attr interpolationmode linear
attr recordingmode vector
attr source throughput(packetPulled)
attr title "outgoing datarate"
attr unit bps
vector 11 ResourceNetwork.hostA.wlan[0].queue droppedPacketLengthsQueueOverflow:vector ETV
attr interpolationmode none
attr recordingmode vector
attr source packetLength(packetDropReasonIsQueueOverflow(packetDropped))
attr title "dropped packet lengths: queue overflow"
attr unit b
vector 12 ResourceNetwork.hostA.wlan[0].queue flowQueueingTime:vector ETV
attr interpolationmode none
attr recordingmode vector
attr source queueingTime(demuxFlow(packetPulled))
attr title "flow queueing times"
attr unit s
vector 13 ResourceNetwork.hostA.wlan[0].queue flowIncomingDataRate:vector ETV
attr interpolationmode linear
attr recordingmode vector
attr source throughput(flowPacketLength(demuxFlow(packetPushStarted)))
attr title "flow specific incoming data rate"
attr unit bps
vector 14 ResourceNetwork.hostA.wlan[0].queue flowOutgoingDataRate:vector ETV
attr interpolationmode linear
attr recordingmode vector
attr source throughput(flowPacketLength(demuxFlow(packetPulled)))
attr title "flow specific outgoing data rate"
attr unit bps
vector 15 ResourceNetwork.hostA.wlan[0].mac passedUpPk:vector(packetBytes) ETV
attr interpolationmode none
attr recordingmode vector(packetBytes)
attr source packetSentToUpper
attr title "packets passed to higher layer, packetBytes"
vector 16 ResourceNetwork.hostA.wlan[0].mac sentDownPk:vector(packetBytes) ETV
attr interpolationmode none
attr recordingmode vector(packetBytes)
attr source packetSentToLower
attr title "packets sent to lower layer, packetBytes"
vector 17 ResourceNetwork.hostA.wlan[0].mac rcvdPkFromHl:vector(packetBytes) ETV
attr interpolationmode none
attr recordingmode vector(packetBytes)
attr source packetReceivedFromUpper
attr title "packets received from higher layer, packetBytes"
vector 18 ResourceNetwork.hostA.wlan[0].mac rcvdPkFromLl:vector(packetBytes) ETV
attr interpolationmode none
attr recordingmode vector(packetBytes)
attr source packetReceivedFromLower
attr title "packets received from lower layer, packetBytes"
vector 19 ResourceNetwork.hostA.wlan[0].mac packetDropIncorrectlyReceived:vector(packetBytes) ETV
attr interpolationmode none
attr recordingmode vector(packetBytes)
attr source packetDropReasonIsIncorrectlyReceived(packetDropped)
attr title "packet drop: incorrectly received, packetBytes"
vector 20 ResourceNetwork.hostA.wlan[0].mac packetDropInterfaceDown:vector(packetBytes) ETV
attr interpolationmode none
attr recordingmode vector(packetBytes)
attr source packetDropReasonIsInterfaceDown(packetDropped)
attr title "packet drop: interface down, packetBytes"
vector 21 ResourceNetwork.hostA.wlan[0].mac packetDropNotAddressedToUs:vector(packetBytes) ETV
attr interpolationmode none
attr recordingmode vector(packetBytes)
attr source packetDropReasonIsNotAddressedToUs(packetDropped)
attr title "packet drop: not addressed to us, packetBytes"
vector 22 ResourceNetwork.hostA.wlan[0].radio radioMode:vector ETV
attr interpolationmode sample-hold
attr recordingmode vector
attr source radioModeChanged
attr title "Radio mode"
vector 23 ResourceNetwork.hostA.wlan[0].radio receptionState:vector ETV
attr interpolationmode sample-hold
attr recordingmode vector
attr source receptionStateChanged
attr title "Radio reception state"
vector 24 ResourceNetwork.hostA.wlan[0].radio transmissionState:vector ETV
attr interpolationmode sample-hold
attr recordingmode vector
attr source transmissionStateChanged
attr title "Radio transmission state"
vector 25 ResourceNetwork.hostA.wlan[0] packetDropInterfaceDown:vector(packetBytes) ETV
attr interpolationmode none
attr recordingmode vector(packetBytes)
attr source packetDropReasonIsInterfaceDown(packetDropped)
attr title "packet drops: interface down, packetBytes"
vector 26 ResourceNetwork.hostA.wlan[0] packetDropNoCarrier:vector(packetBytes) ETV
attr interpolationmode none
attr recordingmode vector(packetBytes)
attr source packetDropReasonIsNoCarrier(packetDropped)
attr title "packet drops: no carrier, packetBytes"
vector 27 ResourceNetwork.hostA.ipv4.ip packetDropAddressResolutionFailed:vector(packetBytes) ETV
attr interpolationmode none
attr recordingmode vector(packetBytes)
attr source packetDropReasonIsAddressResolutionFailed(packetDropped)
attr title "packet drop: address resolution failed, packetBytes"
vector 28 ResourceNetwork.hostA.ipv4.ip packetDropHopLimitReached:vector(packetBytes) ETV
attr interpolationmode none
attr recordingmode vector(packetBytes)
attr source packetDropReasonIsHopLimitReached(packetDropped)
attr title "packet drop: hop limit reached, packetBytes"
vector 29 ResourceNetwork.hostA.ipv4.ip packetDropForwardingDisabled:vector(packetBytes) ETV
attr interpolationmode none
attr recordingmode vector(packetBytes)
attr source packetDropReasonIsForwardingDisabled(packetDropped)
attr title "packet drop: forwarding disabled, packetBytes"
vector 30 ResourceNetwork.hostA.ipv4.ip packetDropNoInterfaceFound:vector(packetBytes) ETV
attr interpolationmode none
attr recordingmode vector(packetBytes)
attr source packetDropReasonIsNoInterfaceFound(packetDropped)
attr title "packet drop: no interface found, packetBytes"
vector 31 ResourceNetwork.hostA.ipv4.ip packetDropNoRouteFound:vector(packetBytes) ETV
attr interpolationmode none
attr recordingmode vector(packetBytes)
attr source packetDropReasonIsNoRouteFound(packetDropped)
attr title "packet drop: no route found, packetBytes"
vector 32 ResourceNetwork.hostA.ipv4.ip packetDropUndefined:vector(packetBytes) ETV
attr interpolationmode none
attr recordingmode vector(packetBytes)
attr source packetDropReasonIsUndefined(packetDropped)
attr title "packet drop: undefined, packetBytes"
vector 33 ResourceNetwork.hostA.udp packetSent:vector(packetBytes) ETV
attr interpolationmode none
attr recordingmode vector(packetBytes)
attr source packetSent
attr title "packets sent, packetBytes"
vector 34 ResourceNetwork.hostA.udp packetReceived:vector(packetBytes) ETV
attr interpolationmode none
attr recordingmode vector(packetBytes)
attr source packetReceived
attr title "packets received, packetBytes"
vector 35 ResourceNetwork.hostA.udp passedUpPk:vector(count) ETV
attr interpolationmode none
attr recordingmode vector(count)
attr source packetSentToUpper
attr title "packets passed up, count"
vector 36 ResourceNetwork.hostA.udp droppedPkWrongPort:vector(count) ETV
attr interpolationmode none
attr recordingmode vector(count)
attr source packetDropReasonIsNoPortFound(packetDropped)
attr title "packets dropped (wrong port), count"
vector 37 ResourceNetwork.hostA.udp droppedPkBadChecksum:vector(count) ETV
attr interpolationmode none
attr recordingmode vector(count)
attr source packetDropReasonIsIncorrectlyReceived(packetDropped)
attr title "packets dropped (checksum error), count"
vector 38 ResourceNetwork.mdMobilePhone.lo[0].lo rcvdPkFromHl:vector(packetBytes) ETV
attr interpolationmode none
attr recordingmode vector(packetBytes)
attr source packetReceivedFromUpper
attr title "packets received from higher layer, packetBytes"
vector 39 ResourceNetwork.mdMobilePhone.lo[0].lo passedUpPk:vector(packetBytes) ETV
attr interpolationmode none
attr recordingmode vector(packetBytes)
attr source packetSentToUpper
attr title "packets passed to higher layer, packetBytes"
vector 40 ResourceNetwork.mdMobilePhone.lo[0] packetDropInterfaceDown:vector(packetBytes) ETV
attr interpolationmode none
attr recordingmode vector(packetBytes)
attr source packetDropReasonIsInterfaceDown(packetDropped)
attr title "packet drops: interface down, packetBytes"
vector 41 ResourceNetwork.mdMobilePhone.lo[0] packetDropNoCarrier:vector(packetBytes) ETV
attr interpolationmode none
attr recordingmode vector(packetBytes)
attr source packetDropReasonIsNoCarrier(packetDropped)
attr title "packet drops: no carrier, packetBytes"
vector 42 ResourceNetwork.mdMobilePhone.wlan[0].queue queueLength:vector ETV
attr autoWarmupFilter false
attr interpolationmode sample-hold
attr recordingmode vector
attr source "warmup(atomic(constant0(packetPushEnded) + count(packetPushStarted) - count(packetPulled) - count(packetRemoved) - count(packetDropped)))"
attr title "queue length"
attr unit pk
vector 43 ResourceNetwork.mdMobilePhone.wlan[0].queue queueBitLength:vector ETV
attr autoWarmupFilter false
attr interpolationmode sample-hold
attr recordingmode vector
attr source "warmup(atomic(constant0(packetPushEnded) + sum(packetLength(packetPushStarted)) - sum(packetLength(packetPulled)) - sum(packetLength(packetRemoved)) - sum(packetLength(packetDropped))))"
attr title "queue bit length"
attr unit b
vector 44 ResourceNetwork.mdMobilePhone.wlan[0].queue queueingTime:vector ETV
attr interpolationmode none
attr recordingmode vector
attr source queueingTime(packetPulled)
attr title "queueing times"
attr unit s
vector 45 ResourceNetwork.mdMobilePhone.wlan[0].queue incomingPacketLengths:vector ETV
attr interpolationmode none
attr recordingmode vector
attr source packetLength(packetPushStarted)
attr title "incoming packet lengths"
attr unit b
vector 46 ResourceNetwork.mdMobilePhone.wlan[0].queue incomingDataRate:vector ETV
attr interpolationmode linear
attr recordingmode vector
attr source throughput(packetPushStarted)
attr title "incoming datarate"
attr unit bps
vector 47 ResourceNetwork.mdMobilePhone.wlan[0].queue outgoingPacketLengths:vector ETV
attr interpolationmode none
attr recordingmode vector
attr source packetLength(packetPulled)
attr title "outgoing packet lengths"
attr unit b
vector 48 ResourceNetwork.mdMobilePhone.wlan[0].queue outgoingDataRate:vector ETV
attr interpolationmode linear
attr recordingmode vector
attr source throughput(packetPulled)
attr title "outgoing datarate"
attr unit bps
vector 49 ResourceNetwork.mdMobilePhone.wlan[0].queue droppedPacketLengthsQueueOverflow:vector ETV
attr interpolationmode none
attr recordingmode vector
attr source packetLength(packetDropReasonIsQueueOverflow(packetDropped))
attr title "dropped packet lengths: queue overflow"
attr unit b
vector 50 ResourceNetwork.mdMobilePhone.wlan[0].queue flowQueueingTime:vector ETV
attr interpolationmode none
attr recordingmode vector
attr source queueingTime(demuxFlow(packetPulled))
attr title "flow queueing times"
attr unit s
vector 51 ResourceNetwork.mdMobilePhone.wlan[0].queue flowIncomingDataRate:vector ETV
attr interpolationmode linear
attr recordingmode vector
attr source throughput(flowPacketLength(demuxFlow(packetPushStarted)))
attr title "flow specific incoming data rate"
attr unit bps
vector 52 ResourceNetwork.mdMobilePhone.wlan[0].queue flowOutgoingDataRate:vector ETV
attr interpolationmode linear
attr recordingmode vector
attr source throughput(flowPacketLength(demuxFlow(packetPulled)))
attr title "flow specific outgoing data rate"
attr unit bps
vector 53 ResourceNetwork.mdMobilePhone.wlan[0].mac passedUpPk:vector(packetBytes) ETV
attr interpolationmode none
attr recordingmode vector(packetBytes)
attr source packetSentToUpper
attr title "packets passed to higher layer, packetBytes"
vector 54 ResourceNetwork.mdMobilePhone.wlan[0].mac sentDownPk:vector(packetBytes) ETV
attr interpolationmode none
attr recordingmode vector(packetBytes)
attr source packetSentToLower
attr title "packets sent to lower layer, packetBytes"
vector 55 ResourceNetwork.mdMobilePhone.wlan[0].mac rcvdPkFromHl:vector(packetBytes) ETV
attr interpolationmode none
attr recordingmode vector(packetBytes)
attr source packetReceivedFromUpper
attr title "packets received from higher layer, packetBytes"
vector 56 ResourceNetwork.mdMobilePhone.wlan[0].mac rcvdPkFromLl:vector(packetBytes) ETV
attr interpolationmode none
attr recordingmode vector(packetBytes)
attr source packetReceivedFromLower
attr title "packets received from lower layer, packetBytes"
vector 57 ResourceNetwork.mdMobilePhone.wlan[0].mac packetDropIncorrectlyReceived:vector(packetBytes) ETV
attr interpolationmode none
attr recordingmode vector(packetBytes)
attr source packetDropReasonIsIncorrectlyReceived(packetDropped)
attr title "packet drop: incorrectly received, packetBytes"
vector 58 ResourceNetwork.mdMobilePhone.wlan[0].mac packetDropInterfaceDown:vector(packetBytes) ETV
attr interpolationmode none
attr recordingmode vector(packetBytes)
attr source packetDropReasonIsInterfaceDown(packetDropped)
attr title "packet drop: interface down, packetBytes"
vector 59 ResourceNetwork.mdMobilePhone.wlan[0].mac packetDropNotAddressedToUs:vector(packetBytes) ETV
attr interpolationmode none
attr recordingmode vector(packetBytes)
attr source packetDropReasonIsNotAddressedToUs(packetDropped)
attr title "packet drop: not addressed to us, packetBytes"
vector 60 ResourceNetwork.mdMobilePhone.wlan[0].radio radioMode:vector ETV
attr interpolationmode sample-hold
attr recordingmode vector
attr source radioModeChanged
attr title "Radio mode"
vector 61 ResourceNetwork.mdMobilePhone.wlan[0].radio receptionState:vector ETV
attr interpolationmode sample-hold
attr recordingmode vector
attr source receptionStateChanged
attr title "Radio reception state"
vector 62 ResourceNetwork.mdMobilePhone.wlan[0].radio transmissionState:vector ETV
attr interpolationmode sample-hold
attr recordingmode vector
attr source transmissionStateChanged
attr title "Radio transmission state"
vector 63 ResourceNetwork.mdMobilePhone.wlan[0] packetDropInterfaceDown:vector(packetBytes) ETV
attr interpolationmode none
attr recordingmode vector(packetBytes)
attr source packetDropReasonIsInterfaceDown(packetDropped)
attr title "packet drops: interface down, packetBytes"
vector 64 ResourceNetwork.mdMobilePhone.wlan[0] packetDropNoCarrier:vector(packetBytes) ETV
attr interpolationmode none
attr recordingmode vector(packetBytes)
attr source packetDropReasonIsNoCarrier(packetDropped)
attr title "packet drops: no carrier, packetBytes"
vector 65 ResourceNetwork.mdMobilePhone.ipv4.ip packetDropAddressResolutionFailed:vector(packetBytes) ETV
attr interpolationmode none
attr recordingmode vector(packetBytes)
attr source packetDropReasonIsAddressResolutionFailed(packetDropped)
attr title "packet drop: address resolution failed, packetBytes"
vector 66 ResourceNetwork.mdMobilePhone.ipv4.ip packetDropHopLimitReached:vector(packetBytes) ETV
attr interpolationmode none
attr recordingmode vector(packetBytes)
attr source packetDropReasonIsHopLimitReached(packetDropped)
attr title "packet drop: hop limit reached, packetBytes"
vector 67 ResourceNetwork.mdMobilePhone.ipv4.ip packetDropForwardingDisabled:vector(packetBytes) ETV
attr interpolationmode none
attr recordingmode vector(packetBytes)
attr source packetDropReasonIsForwardingDisabled(packetDropped)
attr title "packet drop: forwarding disabled, packetBytes"
vector 68 ResourceNetwork.mdMobilePhone.ipv4.ip packetDropNoInterfaceFound:vector(packetBytes) ETV
attr interpolationmode none
attr recordingmode vector(packetBytes)
attr source packetDropReasonIsNoInterfaceFound(packetDropped)
attr title "packet drop: no interface found, packetBytes"
vector 69 ResourceNetwork.mdMobilePhone.ipv4.ip packetDropNoRouteFound:vector(packetBytes) ETV
attr interpolationmode none
attr recordingmode vector(packetBytes)
attr source packetDropReasonIsNoRouteFound(packetDropped)
attr title "packet drop: no route found, packetBytes"
vector 70 ResourceNetwork.mdMobilePhone.ipv4.ip packetDropUndefined:vector(packetBytes) ETV
attr interpolationmode none
attr recordingmode vector(packetBytes)
attr source packetDropReasonIsUndefined(packetDropped)
attr title "packet drop: undefined, packetBytes"
vector 71 ResourceNetwork.mdMobilePhone.udp packetSent:vector(packetBytes) ETV
attr interpolationmode none
attr recordingmode vector(packetBytes)
attr source packetSent
attr title "packets sent, packetBytes"
vector 72 ResourceNetwork.mdMobilePhone.udp packetReceived:vector(packetBytes) ETV
attr interpolationmode none
attr recordingmode vector(packetBytes)
attr source packetReceived
attr title "packets received, packetBytes"
vector 73 ResourceNetwork.mdMobilePhone.udp passedUpPk:vector(count) ETV
attr interpolationmode none
attr recordingmode vector(count)
attr source packetSentToUpper
attr title "packets passed up, count"
vector 74 ResourceNetwork.mdMobilePhone.udp droppedPkWrongPort:vector(count) ETV
attr interpolationmode none
attr recordingmode vector(count)
attr source packetDropReasonIsNoPortFound(packetDropped)
attr title "packets dropped (wrong port), count"
vector 75 ResourceNetwork.mdMobilePhone.udp droppedPkBadChecksum:vector(count) ETV
attr interpolationmode none
attr recordingmode vector(count)
attr source packetDropReasonIsIncorrectlyReceived(packetDropped)
attr title "packets dropped (checksum error), count"
vector 76 ResourceNetwork.mdAutonomousVehicle[0].lo[0].lo rcvdPkFromHl:vector(packetBytes) ETV
attr interpolationmode none
attr recordingmode vector(packetBytes)
attr source packetReceivedFromUpper
attr title "packets received from higher layer, packetBytes"
vector 77 ResourceNetwork.mdAutonomousVehicle[0].lo[0].lo passedUpPk:vector(packetBytes) ETV
attr interpolationmode none
attr recordingmode vector(packetBytes)
attr source packetSentToUpper
attr title "packets passed to higher layer, packetBytes"
vector 78 ResourceNetwork.mdAutonomousVehicle[0].lo[0] packetDropInterfaceDown:vector(packetBytes) ETV
attr interpolationmode none
attr recordingmode vector(packetBytes)
attr source packetDropReasonIsInterfaceDown(packetDropped)
attr title "packet drops: interface down, packetBytes"
vector 79 ResourceNetwork.mdAutonomousVehicle[0].lo[0] packetDropNoCarrier:vector(packetBytes) ETV
attr interpolationmode none
attr recordingmode vector(packetBytes)
attr source packetDropReasonIsNoCarrier(packetDropped)
attr title "packet drops: no carrier, packetBytes"
vector 80 ResourceNetwork.mdAutonomousVehicle[0].wlan[0].queue queueLength:vector ETV
attr autoWarmupFilter false
attr interpolationmode sample-hold
attr recordingmode vector
attr source "warmup(atomic(constant0(packetPushEnded) + count(packetPushStarted) - count(packetPulled) - count(packetRemoved) - count(packetDropped)))"
attr title "queue length"
attr unit pk
vector 81 ResourceNetwork.mdAutonomousVehicle[0].wlan[0].queue queueBitLength:vector ETV
attr autoWarmupFilter false
attr interpolationmode sample-hold
attr recordingmode vector
attr source "warmup(atomic(constant0(packetPushEnded) + sum(packetLength(packetPushStarted)) - sum(packetLength(packetPulled)) - sum(packetLength(packetRemoved)) - sum(packetLength(packetDropped))))"
attr title "queue bit length"
attr unit b
vector 82 ResourceNetwork.mdAutonomousVehicle[0].wlan[0].queue queueingTime:vector ETV
attr interpolationmode none
attr recordingmode vector
attr source queueingTime(packetPulled)
attr title "queueing times"
attr unit s
vector 83 ResourceNetwork.mdAutonomousVehicle[0].wlan[0].queue incomingPacketLengths:vector ETV
attr interpolationmode none
attr recordingmode vector
attr source packetLength(packetPushStarted)
attr title "incoming packet lengths"
attr unit b
vector 84 ResourceNetwork.mdAutonomousVehicle[0].wlan[0].queue incomingDataRate:vector ETV
attr interpolationmode linear
attr recordingmode vector
attr source throughput(packetPushStarted)
attr title "incoming datarate"
attr unit bps
vector 85 ResourceNetwork.mdAutonomousVehicle[0].wlan[0].queue outgoingPacketLengths:vector ETV
attr interpolationmode none
attr recordingmode vector
attr source packetLength(packetPulled)
attr title "outgoing packet lengths"
attr unit b
vector 86 ResourceNetwork.mdAutonomousVehicle[0].wlan[0].queue outgoingDataRate:vector ETV
attr interpolationmode linear
attr recordingmode vector
attr source throughput(packetPulled)
attr title "outgoing datarate"
attr unit bps
vector 87 ResourceNetwork.mdAutonomousVehicle[0].wlan[0].queue droppedPacketLengthsQueueOverflow:vector ETV
attr interpolationmode none
attr recordingmode vector
attr source packetLength(packetDropReasonIsQueueOverflow(packetDropped))
attr title "dropped packet lengths: queue overflow"
attr unit b
vector 88 ResourceNetwork.mdAutonomousVehicle[0].wlan[0].queue flowQueueingTime:vector ETV
attr interpolationmode none
attr recordingmode vector
attr source queueingTime(demuxFlow(packetPulled))
attr title "flow queueing times"
attr unit s
vector 89 ResourceNetwork.mdAutonomousVehicle[0].wlan[0].queue flowIncomingDataRate:vector ETV
attr interpolationmode linear
attr recordingmode vector
attr source throughput(flowPacketLength(demuxFlow(packetPushStarted)))
attr title "flow specific incoming data rate"
attr unit bps
vector 90 ResourceNetwork.mdAutonomousVehicle[0].wlan[0].queue flowOutgoingDataRate:vector ETV
attr interpolationmode linear
attr recordingmode vector
attr source throughput(flowPacketLength(demuxFlow(packetPulled)))
attr title "flow specific outgoing data rate"
attr unit bps
vector 91 ResourceNetwork.mdAutonomousVehicle[0].wlan[0].mac passedUpPk:vector(packetBytes) ETV
attr interpolationmode none
attr recordingmode vector(packetBytes)
attr source packetSentToUpper
attr title "packets passed to higher layer, packetBytes"
vector 92 ResourceNetwork.mdAutonomousVehicle[0].wlan[0].mac sentDownPk:vector(packetBytes) ETV
attr interpolationmode none
attr recordingmode vector(packetBytes)
attr source packetSentToLower
attr title "packets sent to lower layer, packetBytes"
vector 93 ResourceNetwork.mdAutonomousVehicle[0].wlan[0].mac rcvdPkFromHl:vector(packetBytes) ETV
attr interpolationmode none
attr recordingmode vector(packetBytes)
attr source packetReceivedFromUpper
attr title "packets received from higher layer, packetBytes"
vector 94 ResourceNetwork.mdAutonomousVehicle[0].wlan[0].mac rcvdPkFromLl:vector(packetBytes) ETV
attr interpolationmode none
attr recordingmode vector(packetBytes)
attr source packetReceivedFromLower
attr title "packets received from lower layer, packetBytes"
vector 95 ResourceNetwork.mdAutonomousVehicle[0].wlan[0].mac packetDropIncorrectlyReceived:vector(packetBytes) ETV
attr interpolationmode none
attr recordingmode vector(packetBytes)
attr source packetDropReasonIsIncorrectlyReceived(packetDropped)
attr title "packet drop: incorrectly received, packetBytes"
vector 96 ResourceNetwork.mdAutonomousVehicle[0].wlan[0].mac packetDropInterfaceDown:vector(packetBytes) ETV
attr interpolationmode none
attr recordingmode vector(packetBytes)
attr source packetDropReasonIsInterfaceDown(packetDropped)
attr title "packet drop: interface down, packetBytes"
vector 97 ResourceNetwork.mdAutonomousVehicle[0].wlan[0].mac packetDropNotAddressedToUs:vector(packetBytes) ETV
attr interpolationmode none
attr recordingmode vector(packetBytes)
attr source packetDropReasonIsNotAddressedToUs(packetDropped)
attr title "packet drop: not addressed to us, packetBytes"
vector 98 ResourceNetwork.mdAutonomousVehicle[0].wlan[0].radio radioMode:vector ETV
attr interpolationmode sample-hold
attr recordingmode vector
attr source radioModeChanged
attr title "Radio mode"
vector 99 ResourceNetwork.mdAutonomousVehicle[0].wlan[0].radio receptionState:vector ETV
attr interpolationmode sample-hold
attr recordingmode vector
attr source receptionStateChanged
attr title "Radio reception state"
vector 100 ResourceNetwork.mdAutonomousVehicle[0].wlan[0].radio transmissionState:vector ETV
attr interpolationmode sample-hold
attr recordingmode vector
attr source transmissionStateChanged
attr title "Radio transmission state"
vector 101 ResourceNetwork.mdAutonomousVehicle[0].wlan[0] packetDropInterfaceDown:vector(packetBytes) ETV
attr interpolationmode none
attr recordingmode vector(packetBytes)
attr source packetDropReasonIsInterfaceDown(packetDropped)
attr title "packet drops: interface down, packetBytes"
vector 102 ResourceNetwork.mdAutonomousVehicle[0].wlan[0] packetDropNoCarrier:vector(packetBytes) ETV
attr interpolationmode none
attr recordingmode vector(packetBytes)
attr source packetDropReasonIsNoCarrier(packetDropped)
attr title "packet drops: no carrier, packetBytes"
vector 103 ResourceNetwork.mdAutonomousVehicle[0].ipv4.ip packetDropAddressResolutionFailed:vector(packetBytes) ETV
attr interpolationmode none
attr recordingmode vector(packetBytes)
attr source packetDropReasonIsAddressResolutionFailed(packetDropped)
attr title "packet drop: address resolution failed, packetBytes"
vector 104 ResourceNetwork.mdAutonomousVehicle[0].ipv4.ip packetDropHopLimitReached:vector(packetBytes) ETV
attr interpolationmode none
attr recordingmode vector(packetBytes)
attr source packetDropReasonIsHopLimitReached(packetDropped)
attr title "packet drop: hop limit reached, packetBytes"
vector 105 ResourceNetwork.mdAutonomousVehicle[0].ipv4.ip packetDropForwardingDisabled:vector(packetBytes) ETV
attr interpolationmode none
attr recordingmode vector(packetBytes)
attr source packetDropReasonIsForwardingDisabled(packetDropped)
attr title "packet drop: forwarding disabled, packetBytes"
vector 106 ResourceNetwork.mdAutonomousVehicle[0].ipv4.ip packetDropNoInterfaceFound:vector(packetBytes) ETV
attr interpolationmode none
attr recordingmode vector(packetBytes)
attr source packetDropReasonIsNoInterfaceFound(packetDropped)
attr title "packet drop: no interface found, packetBytes"
vector 107 ResourceNetwork.mdAutonomousVehicle[0].ipv4.ip packetDropNoRouteFound:vector(packetBytes) ETV
attr interpolationmode none
attr recordingmode vector(packetBytes)
attr source packetDropReasonIsNoRouteFound(packetDropped)
attr title "packet drop: no route found, packetBytes"
vector 108 ResourceNetwork.mdAutonomousVehicle[0].ipv4.ip packetDropUndefined:vector(packetBytes) ETV
attr interpolationmode none
attr recordingmode vector(packetBytes)
attr source packetDropReasonIsUndefined(packetDropped)
attr title "packet drop: undefined, packetBytes"
vector 109 ResourceNetwork.mdAutonomousVehicle[0].udp packetSent:vector(packetBytes) ETV
attr interpolationmode none
attr recordingmode vector(packetBytes)
attr source packetSent
attr title "packets sent, packetBytes"
vector 110 ResourceNetwork.mdAutonomousVehicle[0].udp packetReceived:vector(packetBytes) ETV
attr interpolationmode none
attr recordingmode vector(packetBytes)
attr source packetReceived
attr title "packets received, packetBytes"
vector 111 ResourceNetwork.mdAutonomousVehicle[0].udp passedUpPk:vector(count) ETV
attr interpolationmode none
attr recordingmode vector(count)
attr source packetSentToUpper
attr title "packets passed up, count"
vector 112 ResourceNetwork.mdAutonomousVehicle[0].udp droppedPkWrongPort:vector(count) ETV
attr interpolationmode none
attr recordingmode vector(count)
attr source packetDropReasonIsNoPortFound(packetDropped)
attr title "packets dropped (wrong port), count"
vector 113 ResourceNetwork.mdAutonomousVehicle[0].udp droppedPkBadChecksum:vector(count) ETV
attr interpolationmode none
attr recordingmode vector(count)
attr source packetDropReasonIsIncorrectlyReceived(packetDropped)
attr title "packets dropped (checksum error), count"
vector 114 ResourceNetwork.mdAutonomousVehicle[0].app[0] packetReceived:vector(packetBytes) ETV
attr interpolationmode none
attr recordingmode vector(packetBytes)
attr source packetReceived
attr title "packets received, packetBytes"
vector 115 ResourceNetwork.mdAutonomousVehicle[0].app[0] throughput:vector ETV
attr recordingmode vector
attr source throughput(packetReceived)
attr title throughput
attr unit bps
vector 116 ResourceNetwork.mdAutonomousVehicle[0].app[0] packetSent:vector(packetBytes) ETV
attr interpolationmode none
attr recordingmode vector(packetBytes)
attr source packetSent
attr title "packets sent, packetBytes"
vector 117 ResourceNetwork.mdAutonomousVehicle[0].app[0] rcvdPkLifetime:vector ETV
attr interpolationmode none
attr recordingmode vector
attr source dataAge(packetReceived)
attr title "received packet lifetime"
attr unit s
vector 118 ResourceNetwork.mdAutonomousVehicle[0].app[0] rcvdPkSeqNo:vector ETV
attr interpolationmode none
attr recordingmode vector
attr source appPkSeqNo(packetReceived)
attr title "received packet sequence number"
vector 119 ResourceNetwork.mdAutonomousVehicle[1].lo[0].lo rcvdPkFromHl:vector(packetBytes) ETV
attr interpolationmode none
attr recordingmode vector(packetBytes)
attr source packetReceivedFromUpper
attr title "packets received from higher layer, packetBytes"
vector 120 ResourceNetwork.mdAutonomousVehicle[1].lo[0].lo passedUpPk:vector(packetBytes) ETV
attr interpolationmode none
attr recordingmode vector(packetBytes)
attr source packetSentToUpper
attr title "packets passed to higher layer, packetBytes"
vector 121 ResourceNetwork.mdAutonomousVehicle[1].lo[0] packetDropInterfaceDown:vector(packetBytes) ETV
attr interpolationmode none
attr recordingmode vector(packetBytes)
attr source packetDropReasonIsInterfaceDown(packetDropped)
attr title "packet drops: interface down, packetBytes"
vector 122 ResourceNetwork.mdAutonomousVehicle[1].lo[0] packetDropNoCarrier:vector(packetBytes) ETV
attr interpolationmode none
attr recordingmode vector(packetBytes)
attr source packetDropReasonIsNoCarrier(packetDropped)
attr title "packet drops: no carrier, packetBytes"
vector 123 ResourceNetwork.mdAutonomousVehicle[1].wlan[0].queue queueLength:vector ETV
attr autoWarmupFilter false
attr interpolationmode sample-hold
attr recordingmode vector
attr source "warmup(atomic(constant0(packetPushEnded) + count(packetPushStarted) - count(packetPulled) - count(packetRemoved) - count(packetDropped)))"
attr title "queue length"
attr unit pk
vector 124 ResourceNetwork.mdAutonomousVehicle[1].wlan[0].queue queueBitLength:vector ETV
attr autoWarmupFilter false
attr interpolationmode sample-hold
attr recordingmode vector
attr source "warmup(atomic(constant0(packetPushEnded) + sum(packetLength(packetPushStarted)) - sum(packetLength(packetPulled)) - sum(packetLength(packetRemoved)) - sum(packetLength(packetDropped))))"
attr title "queue bit length"
attr unit b
vector 125 ResourceNetwork.mdAutonomousVehicle[1].wlan[0].queue queueingTime:vector ETV
attr interpolationmode none
attr recordingmode vector
attr source queueingTime(packetPulled)
attr title "queueing times"
attr unit s
vector 126 ResourceNetwork.mdAutonomousVehicle[1].wlan[0].queue incomingPacketLengths:vector ETV
attr interpolationmode none
attr recordingmode vector
attr source packetLength(packetPushStarted)
attr title "incoming packet lengths"
attr unit b
vector 127 ResourceNetwork.mdAutonomousVehicle[1].wlan[0].queue incomingDataRate:vector ETV
attr interpolationmode linear
attr recordingmode vector
attr source throughput(packetPushStarted)
attr title "incoming datarate"
attr unit bps
vector 128 ResourceNetwork.mdAutonomousVehicle[1].wlan[0].queue outgoingPacketLengths:vector ETV
attr interpolationmode none
attr recordingmode vector
attr source packetLength(packetPulled)
attr title "outgoing packet lengths"
attr unit b
vector 129 ResourceNetwork.mdAutonomousVehicle[1].wlan[0].queue outgoingDataRate:vector ETV
attr interpolationmode linear
attr recordingmode vector
attr source throughput(packetPulled)
attr title "outgoing datarate"
attr unit bps
vector 130 ResourceNetwork.mdAutonomousVehicle[1].wlan[0].queue droppedPacketLengthsQueueOverflow:vector ETV
attr interpolationmode none
attr recordingmode vector
attr source packetLength(packetDropReasonIsQueueOverflow(packetDropped))
attr title "dropped packet lengths: queue overflow"
attr unit b
vector 131 ResourceNetwork.mdAutonomousVehicle[1].wlan[0].queue flowQueueingTime:vector ETV
attr interpolationmode none
attr recordingmode vector
attr source queueingTime(demuxFlow(packetPulled))
attr title "flow queueing times"
attr unit s
vector 132 ResourceNetwork.mdAutonomousVehicle[1].wlan[0].queue flowIncomingDataRate:vector ETV
attr interpolationmode linear
attr recordingmode vector
attr source throughput(flowPacketLength(demuxFlow(packetPushStarted)))
attr title "flow specific incoming data rate"
attr unit bps
vector 133 ResourceNetwork.mdAutonomousVehicle[1].wlan[0].queue flowOutgoingDataRate:vector ETV
attr interpolationmode linear
attr recordingmode vector
attr source throughput(flowPacketLength(demuxFlow(packetPulled)))
attr title "flow specific outgoing data rate"
attr unit bps
vector 134 ResourceNetwork.mdAutonomousVehicle[1].wlan[0].mac passedUpPk:vector(packetBytes) ETV
attr interpolationmode none
attr recordingmode vector(packetBytes)
attr source packetSentToUpper
attr title "packets passed to higher layer, packetBytes"
vector 135 ResourceNetwork.mdAutonomousVehicle[1].wlan[0].mac sentDownPk:vector(packetBytes) ETV
attr interpolationmode none
attr recordingmode vector(packetBytes)
attr source packetSentToLower
attr title "packets sent to lower layer, packetBytes"
vector 136 ResourceNetwork.mdAutonomousVehicle[1].wlan[0].mac rcvdPkFromHl:vector(packetBytes) ETV
attr interpolationmode none
attr recordingmode vector(packetBytes)
attr source packetReceivedFromUpper
attr title "packets received from higher layer, packetBytes"
vector 137 ResourceNetwork.mdAutonomousVehicle[1].wlan[0].mac rcvdPkFromLl:vector(packetBytes) ETV
attr interpolationmode none
attr recordingmode vector(packetBytes)
attr source packetReceivedFromLower
attr title "packets received from lower layer, packetBytes"
vector 138 ResourceNetwork.mdAutonomousVehicle[1].wlan[0].mac packetDropIncorrectlyReceived:vector(packetBytes) ETV
attr interpolationmode none
attr recordingmode vector(packetBytes)
attr source packetDropReasonIsIncorrectlyReceived(packetDropped)
attr title "packet drop: incorrectly received, packetBytes"
vector 139 ResourceNetwork.mdAutonomousVehicle[1].wlan[0].mac packetDropInterfaceDown:vector(packetBytes) ETV
attr interpolationmode none
attr recordingmode vector(packetBytes)
attr source packetDropReasonIsInterfaceDown(packetDropped)
attr title "packet drop: interface down, packetBytes"
vector 140 ResourceNetwork.mdAutonomousVehicle[1].wlan[0].mac packetDropNotAddressedToUs:vector(packetBytes) ETV
attr interpolationmode none
attr recordingmode vector(packetBytes)
attr source packetDropReasonIsNotAddressedToUs(packetDropped)
attr title "packet drop: not addressed to us, packetBytes"
vector 141 ResourceNetwork.mdAutonomousVehicle[1].wlan[0].radio radioMode:vector ETV
attr interpolationmode sample-hold
attr recordingmode vector
attr source radioModeChanged
attr title "Radio mode"
vector 142 ResourceNetwork.mdAutonomousVehicle[1].wlan[0].radio receptionState:vector ETV
attr interpolationmode sample-hold
attr recordingmode vector
attr source receptionStateChanged
attr title "Radio reception state"
vector 143 ResourceNetwork.mdAutonomousVehicle[1].wlan[0].radio transmissionState:vector ETV
attr interpolationmode sample-hold
attr recordingmode vector
attr source transmissionStateChanged
attr title "Radio transmission state"
vector 144 ResourceNetwork.mdAutonomousVehicle[1].wlan[0] packetDropInterfaceDown:vector(packetBytes) ETV
attr interpolationmode none
attr recordingmode vector(packetBytes)
attr source packetDropReasonIsInterfaceDown(packetDropped)
attr title "packet drops: interface down, packetBytes"
vector 145 ResourceNetwork.mdAutonomousVehicle[1].wlan[0] packetDropNoCarrier:vector(packetBytes) ETV
attr interpolationmode none
attr recordingmode vector(packetBytes)
attr source packetDropReasonIsNoCarrier(packetDropped)
attr title "packet drops: no carrier, packetBytes"
vector 146 ResourceNetwork.mdAutonomousVehicle[1].ipv4.ip packetDropAddressResolutionFailed:vector(packetBytes) ETV
attr interpolationmode none
attr recordingmode vector(packetBytes)
attr source packetDropReasonIsAddressResolutionFailed(packetDropped)
attr title "packet drop: address resolution failed, packetBytes"
vector 147 ResourceNetwork.mdAutonomousVehicle[1].ipv4.ip packetDropHopLimitReached:vector(packetBytes) ETV
attr interpolationmode none
attr recordingmode vector(packetBytes)
attr source packetDropReasonIsHopLimitReached(packetDropped)
attr title "packet drop: hop limit reached, packetBytes"
vector 148 ResourceNetwork.mdAutonomousVehicle[1].ipv4.ip packetDropForwardingDisabled:vector(packetBytes) ETV
attr interpolationmode none
attr recordingmode vector(packetBytes)
attr source packetDropReasonIsForwardingDisabled(packetDropped)
attr title "packet drop: forwarding disabled, packetBytes"
vector 149 ResourceNetwork.mdAutonomousVehicle[1].ipv4.ip packetDropNoInterfaceFound:vector(packetBytes) ETV
attr interpolationmode none
attr recordingmode vector(packetBytes)
attr source packetDropReasonIsNoInterfaceFound(packetDropped)
attr title "packet drop: no interface found, packetBytes"
vector 150 ResourceNetwork.mdAutonomousVehicle[1].ipv4.ip packetDropNoRouteFound:vector(packetBytes) ETV
attr interpolationmode none
attr recordingmode vector(packetBytes)
attr source packetDropReasonIsNoRouteFound(packetDropped)
attr title "packet drop: no route found, packetBytes"
vector 151 ResourceNetwork.mdAutonomousVehicle[1].ipv4.ip packetDropUndefined:vector(packetBytes) ETV
attr interpolationmode none
attr recordingmode vector(packetBytes)
attr source packetDropReasonIsUndefined(packetDropped)
attr title "packet drop: undefined, packetBytes"
vector 152 ResourceNetwork.mdAutonomousVehicle[1].udp packetSent:vector(packetBytes) ETV
attr interpolationmode none
attr recordingmode vector(packetBytes)
attr source packetSent
attr title "packets sent, packetBytes"
vector 153 ResourceNetwork.mdAutonomousVehicle[1].udp packetReceived:vector(packetBytes) ETV
attr interpolationmode none
attr recordingmode vector(packetBytes)
attr source packetReceived
attr title "packets received, packetBytes"
vector 154 ResourceNetwork.mdAutonomousVehicle[1].udp passedUpPk:vector(count) ETV
attr interpolationmode none
attr recordingmode vector(count)
attr source packetSentToUpper
attr title "packets passed up, count"
vector 155 ResourceNetwork.mdAutonomousVehicle[1].udp droppedPkWrongPort:vector(count) ETV
attr interpolationmode none
attr recordingmode vector(count)
attr source packetDropReasonIsNoPortFound(packetDropped)
attr title "packets dropped (wrong port), count"
vector 156 ResourceNetwork.mdAutonomousVehicle[1].udp droppedPkBadChecksum:vector(count) ETV
attr interpolationmode none
attr recordingmode vector(count)
attr source packetDropReasonIsIncorrectlyReceived(packetDropped)
attr title "packets dropped (checksum error), count"
vector 157 ResourceNetwork.mdAutonomousVehicle[1].app[0] packetReceived:vector(packetBytes) ETV
attr interpolationmode none
attr recordingmode vector(packetBytes)
attr source packetReceived
attr title "packets received, packetBytes"
vector 158 ResourceNetwork.mdAutonomousVehicle[1].app[0] throughput:vector ETV
attr recordingmode vector
attr source throughput(packetReceived)
attr title throughput
attr unit bps
vector 159 ResourceNetwork.mdAutonomousVehicle[1].app[0] packetSent:vector(packetBytes) ETV
attr interpolationmode none
attr recordingmode vector(packetBytes)
attr source packetSent
attr title "packets sent, packetBytes"
vector 160 ResourceNetwork.mdAutonomousVehicle[1].app[0] rcvdPkLifetime:vector ETV
attr interpolationmode none
attr recordingmode vector
attr source dataAge(packetReceived)
attr title "received packet lifetime"
attr unit s
vector 161 ResourceNetwork.mdAutonomousVehicle[1].app[0] rcvdPkSeqNo:vector ETV
attr interpolationmode none
attr recordingmode vector
attr source appPkSeqNo(packetReceived)
attr title "received packet sequence number"
vector 162 ResourceNetwork.mdAutonomousVehicle[2].lo[0].lo rcvdPkFromHl:vector(packetBytes) ETV
attr interpolationmode none
attr recordingmode vector(packetBytes)
attr source packetReceivedFromUpper
attr title "packets received from higher layer, packetBytes"
vector 163 ResourceNetwork.mdAutonomousVehicle[2].lo[0].lo passedUpPk:vector(packetBytes) ETV
attr interpolationmode none
attr recordingmode vector(packetBytes)
attr source packetSentToUpper
attr title "packets passed to higher layer, packetBytes"
vector 164 ResourceNetwork.mdAutonomousVehicle[2].lo[0] packetDropInterfaceDown:vector(packetBytes) ETV
attr interpolationmode none
attr recordingmode vector(packetBytes)
attr source packetDropReasonIsInterfaceDown(packetDropped)
attr title "packet drops: interface down, packetBytes"
vector 165 ResourceNetwork.mdAutonomousVehicle[2].lo[0] packetDropNoCarrier:vector(packetBytes) ETV
attr interpolationmode none
attr recordingmode vector(packetBytes)
attr source packetDropReasonIsNoCarrier(packetDropped)
attr title "packet drops: no carrier, packetBytes"
vector 166 ResourceNetwork.mdAutonomousVehicle[2].wlan[0].queue queueLength:vector ETV
attr autoWarmupFilter false
attr interpolationmode sample-hold
attr recordingmode vector
attr source "warmup(atomic(constant0(packetPushEnded) + count(packetPushStarted) - count(packetPulled) - count(packetRemoved) - count(packetDropped)))"
attr title "queue length"
attr unit pk
vector 167 ResourceNetwork.mdAutonomousVehicle[2].wlan[0].queue queueBitLength:vector ETV
attr autoWarmupFilter false
attr interpolationmode sample-hold
attr recordingmode vector
attr source "warmup(atomic(constant0(packetPushEnded) + sum(packetLength(packetPushStarted)) - sum(packetLength(packetPulled)) - sum(packetLength(packetRemoved)) - sum(packetLength(packetDropped))))"
attr title "queue bit length"
attr unit b
vector 168 ResourceNetwork.mdAutonomousVehicle[2].wlan[0].queue queueingTime:vector ETV
attr interpolationmode none
attr recordingmode vector
attr source queueingTime(packetPulled)
attr title "queueing times"
attr unit s
vector 169 ResourceNetwork.mdAutonomousVehicle[2].wlan[0].queue incomingPacketLengths:vector ETV
attr interpolationmode none
attr recordingmode vector
attr source packetLength(packetPushStarted)
attr title "incoming packet lengths"
attr unit b
vector 170 ResourceNetwork.mdAutonomousVehicle[2].wlan[0].queue incomingDataRate:vector ETV
attr interpolationmode linear
attr recordingmode vector
attr source throughput(packetPushStarted)
attr title "incoming datarate"
attr unit bps
vector 171 ResourceNetwork.mdAutonomousVehicle[2].wlan[0].queue outgoingPacketLengths:vector ETV
attr interpolationmode none
attr recordingmode vector
attr source packetLength(packetPulled)
attr title "outgoing packet lengths"
attr unit b
vector 172 ResourceNetwork.mdAutonomousVehicle[2].wlan[0].queue outgoingDataRate:vector ETV
attr interpolationmode linear
attr recordingmode vector
attr source throughput(packetPulled)
attr title "outgoing datarate"
attr unit bps
vector 173 ResourceNetwork.mdAutonomousVehicle[2].wlan[0].queue droppedPacketLengthsQueueOverflow:vector ETV
attr interpolationmode none
attr recordingmode vector
attr source packetLength(packetDropReasonIsQueueOverflow(packetDropped))
attr title "dropped packet lengths: queue overflow"
attr unit b
vector 174 ResourceNetwork.mdAutonomousVehicle[2].wlan[0].queue flowQueueingTime:vector ETV
attr interpolationmode none
attr recordingmode vector
attr source queueingTime(demuxFlow(packetPulled))
attr title "flow queueing times"
attr unit s
vector 175 ResourceNetwork.mdAutonomousVehicle[2].wlan[0].queue flowIncomingDataRate:vector ETV
attr interpolationmode linear
attr recordingmode vector
attr source throughput(flowPacketLength(demuxFlow(packetPushStarted)))
attr title "flow specific incoming data rate"
attr unit bps
vector 176 ResourceNetwork.mdAutonomousVehicle[2].wlan[0].queue flowOutgoingDataRate:vector ETV
attr interpolationmode linear
attr recordingmode vector
attr source throughput(flowPacketLength(demuxFlow(packetPulled)))
attr title "flow specific outgoing data rate"
attr unit bps
vector 177 ResourceNetwork.mdAutonomousVehicle[2].wlan[0].mac passedUpPk:vector(packetBytes) ETV
attr interpolationmode none
attr recordingmode vector(packetBytes)
attr source packetSentToUpper
attr title "packets passed to higher layer, packetBytes"
vector 178 ResourceNetwork.mdAutonomousVehicle[2].wlan[0].mac sentDownPk:vector(packetBytes) ETV
attr interpolationmode none
attr recordingmode vector(packetBytes)
attr source packetSentToLower
attr title "packets sent to lower layer, packetBytes"
vector 179 ResourceNetwork.mdAutonomousVehicle[2].wlan[0].mac rcvdPkFromHl:vector(packetBytes) ETV
attr interpolationmode none
attr recordingmode vector(packetBytes)
attr source packetReceivedFromUpper
attr title "packets received from higher layer, packetBytes"
vector 180 ResourceNetwork.mdAutonomousVehicle[2].wlan[0].mac rcvdPkFromLl:vector(packetBytes) ETV
attr interpolationmode none
attr recordingmode vector(packetBytes)
attr source packetReceivedFromLower
attr title "packets received from lower layer, packetBytes"
vector 181 ResourceNetwork.mdAutonomousVehicle[2].wlan[0].mac packetDropIncorrectlyReceived:vector(packetBytes) ETV
attr interpolationmode none
attr recordingmode vector(packetBytes)
attr source packetDropReasonIsIncorrectlyReceived(packetDropped)
attr title "packet drop: incorrectly received, packetBytes"
vector 182 ResourceNetwork.mdAutonomousVehicle[2].wlan[0].mac packetDropInterfaceDown:vector(packetBytes) ETV
attr interpolationmode none
attr recordingmode vector(packetBytes)
attr source packetDropReasonIsInterfaceDown(packetDropped)
attr title "packet drop: interface down, packetBytes"
vector 183 ResourceNetwork.mdAutonomousVehicle[2].wlan[0].mac packetDropNotAddressedToUs:vector(packetBytes) ETV
attr interpolationmode none
attr recordingmode vector(packetBytes)
attr source packetDropReasonIsNotAddressedToUs(packetDropped)
attr title "packet drop: not addressed to us, packetBytes"
vector 184 ResourceNetwork.mdAutonomousVehicle[2].wlan[0].radio radioMode:vector ETV
attr interpolationmode sample-hold
attr recordingmode vector
attr source radioModeChanged
attr title "Radio mode"
vector 185 ResourceNetwork.mdAutonomousVehicle[2].wlan[0].radio receptionState:vector ETV
attr interpolationmode sample-hold
attr recordingmode vector
attr source receptionStateChanged
attr title "Radio reception state"
vector 186 ResourceNetwork.mdAutonomousVehicle[2].wlan[0].radio transmissionState:vector ETV
attr interpolationmode sample-hold
attr recordingmode vector
attr source transmissionStateChanged
attr title "Radio transmission state"
vector 187 ResourceNetwork.mdAutonomousVehicle[2].wlan[0] packetDropInterfaceDown:vector(packetBytes) ETV
attr interpolationmode none
attr recordingmode vector(packetBytes)
attr source packetDropReasonIsInterfaceDown(packetDropped)
attr title "packet drops: interface down, packetBytes"
vector 188 ResourceNetwork.mdAutonomousVehicle[2].wlan[0] packetDropNoCarrier:vector(packetBytes) ETV
attr interpolationmode none
attr recordingmode vector(packetBytes)
attr source packetDropReasonIsNoCarrier(packetDropped)
attr title "packet drops: no carrier, packetBytes"
vector 189 ResourceNetwork.mdAutonomousVehicle[2].ipv4.ip packetDropAddressResolutionFailed:vector(packetBytes) ETV
attr interpolationmode none
attr recordingmode vector(packetBytes)
attr source packetDropReasonIsAddressResolutionFailed(packetDropped)
attr title "packet drop: address resolution failed, packetBytes"
vector 190 ResourceNetwork.mdAutonomousVehicle[2].ipv4.ip packetDropHopLimitReached:vector(packetBytes) ETV
attr interpolationmode none
attr recordingmode vector(packetBytes)
attr source packetDropReasonIsHopLimitReached(packetDropped)
attr title "packet drop: hop limit reached, packetBytes"
vector 191 ResourceNetwork.mdAutonomousVehicle[2].ipv4.ip packetDropForwardingDisabled:vector(packetBytes) ETV
attr interpolationmode none
attr recordingmode vector(packetBytes)
attr source packetDropReasonIsForwardingDisabled(packetDropped)
attr title "packet drop: forwarding disabled, packetBytes"
vector 192 ResourceNetwork.mdAutonomousVehicle[2].ipv4.ip packetDropNoInterfaceFound:vector(packetBytes) ETV
attr interpolationmode none
attr recordingmode vector(packetBytes)
attr source packetDropReasonIsNoInterfaceFound(packetDropped)
attr title "packet drop: no interface found, packetBytes"
vector 193 ResourceNetwork.mdAutonomousVehicle[2].ipv4.ip packetDropNoRouteFound:vector(packetBytes) ETV
attr interpolationmode none
attr recordingmode vector(packetBytes)
attr source packetDropReasonIsNoRouteFound(packetDropped)
attr title "packet drop: no route found, packetBytes"
vector 194 ResourceNetwork.mdAutonomousVehicle[2].ipv4.ip packetDropUndefined:vector(packetBytes) ETV
attr interpolationmode none
attr recordingmode vector(packetBytes)
attr source packetDropReasonIsUndefined(packetDropped)
attr title "packet drop: undefined, packetBytes"
vector 195 ResourceNetwork.mdAutonomousVehicle[2].udp packetSent:vector(packetBytes) ETV
attr interpolationmode none
attr recordingmode vector(packetBytes)
attr source packetSent
attr title "packets sent, packetBytes"
vector 196 ResourceNetwork.mdAutonomousVehicle[2].udp packetReceived:vector(packetBytes) ETV
attr interpolationmode none
attr recordingmode vector(packetBytes)
attr source packetReceived
attr title "packets received, packetBytes"
vector 197 ResourceNetwork.mdAutonomousVehicle[2].udp passedUpPk:vector(count) ETV
attr interpolationmode none
attr recordingmode vector(count)
attr source packetSentToUpper
attr title "packets passed up, count"
vector 198 ResourceNetwork.mdAutonomousVehicle[2].udp droppedPkWrongPort:vector(count) ETV
attr interpolationmode none
attr recordingmode vector(count)
attr source packetDropReasonIsNoPortFound(packetDropped)
attr title "packets dropped (wrong port), count"
vector 199 ResourceNetwork.mdAutonomousVehicle[2].udp droppedPkBadChecksum:vector(count) ETV
attr interpolationmode none
attr recordingmode vector(count)
attr source packetDropReasonIsIncorrectlyReceived(packetDropped)
attr title "packets dropped (checksum error), count"
vector 200 ResourceNetwork.mdAutonomousVehicle[2].app[0] packetReceived:vector(packetBytes) ETV
attr interpolationmode none
attr recordingmode vector(packetBytes)
attr source packetReceived
attr title "packets received, packetBytes"
vector 201 ResourceNetwork.mdAutonomousVehicle[2].app[0] throughput:vector ETV
attr recordingmode vector
attr source throughput(packetReceived)
attr title throughput
attr unit bps
vector 202 ResourceNetwork.mdAutonomousVehicle[2].app[0] packetSent:vector(packetBytes) ETV
attr interpolationmode none
attr recordingmode vector(packetBytes)
attr source packetSent
attr title "packets sent, packetBytes"
vector 203 ResourceNetwork.mdAutonomousVehicle[2].app[0] rcvdPkLifetime:vector ETV
attr interpolationmode none
attr recordingmode vector
attr source dataAge(packetReceived)
attr title "received packet lifetime"
attr unit s
vector 204 ResourceNetwork.mdAutonomousVehicle[2].app[0] rcvdPkSeqNo:vector ETV
attr interpolationmode none
attr recordingmode vector
attr source appPkSeqNo(packetReceived)
attr title "received packet sequence number"
vector 205 ResourceNetwork.mdAutonomousVehicle[3].lo[0].lo rcvdPkFromHl:vector(packetBytes) ETV
attr interpolationmode none
attr recordingmode vector(packetBytes)
attr source packetReceivedFromUpper
attr title "packets received from higher layer, packetBytes"
vector 206 ResourceNetwork.mdAutonomousVehicle[3].lo[0].lo passedUpPk:vector(packetBytes) ETV
attr interpolationmode none
attr recordingmode vector(packetBytes)
attr source packetSentToUpper
attr title "packets passed to higher layer, packetBytes"
vector 207 ResourceNetwork.mdAutonomousVehicle[3].lo[0] packetDropInterfaceDown:vector(packetBytes) ETV
attr interpolationmode none
attr recordingmode vector(packetBytes)
attr source packetDropReasonIsInterfaceDown(packetDropped)
attr title "packet drops: interface down, packetBytes"
vector 208 ResourceNetwork.mdAutonomousVehicle[3].lo[0] packetDropNoCarrier:vector(packetBytes) ETV
attr interpolationmode none
attr recordingmode vector(packetBytes)
attr source packetDropReasonIsNoCarrier(packetDropped)
attr title "packet drops: no carrier, packetBytes"
vector 209 ResourceNetwork.mdAutonomousVehicle[3].wlan[0].queue queueLength:vector ETV
attr autoWarmupFilter false
attr interpolationmode sample-hold
attr recordingmode vector
attr source "warmup(atomic(constant0(packetPushEnded) + count(packetPushStarted) - count(packetPulled) - count(packetRemoved) - count(packetDropped)))"
attr title "queue length"
attr unit pk
vector 210 ResourceNetwork.mdAutonomousVehicle[3].wlan[0].queue queueBitLength:vector ETV
attr autoWarmupFilter false
attr interpolationmode sample-hold
attr recordingmode vector
attr source "warmup(atomic(constant0(packetPushEnded) + sum(packetLength(packetPushStarted)) - sum(packetLength(packetPulled)) - sum(packetLength(packetRemoved)) - sum(packetLength(packetDropped))))"
attr title "queue bit length"
attr unit b
vector 211 ResourceNetwork.mdAutonomousVehicle[3].wlan[0].queue queueingTime:vector ETV
attr interpolationmode none
attr recordingmode vector
attr source queueingTime(packetPulled)
attr title "queueing times"
attr unit s
vector 212 ResourceNetwork.mdAutonomousVehicle[3].wlan[0].queue incomingPacketLengths:vector ETV
attr interpolationmode none
attr recordingmode vector
attr source packetLength(packetPushStarted)
attr title "incoming packet lengths"
attr unit b
vector 213 ResourceNetwork.mdAutonomousVehicle[3].wlan[0].queue incomingDataRate:vector ETV
attr interpolationmode linear
attr recordingmode vector
attr source throughput(packetPushStarted)
attr title "incoming datarate"
attr unit bps
vector 214 ResourceNetwork.mdAutonomousVehicle[3].wlan[0].queue outgoingPacketLengths:vector ETV
attr interpolationmode none
attr recordingmode vector
attr source packetLength(packetPulled)
attr title "outgoing packet lengths"
attr unit b
vector 215 ResourceNetwork.mdAutonomousVehicle[3].wlan[0].queue outgoingDataRate:vector ETV
attr interpolationmode linear
attr recordingmode vector
attr source throughput(packetPulled)
attr title "outgoing datarate"
attr unit bps
vector 216 ResourceNetwork.mdAutonomousVehicle[3].wlan[0].queue droppedPacketLengthsQueueOverflow:vector ETV
attr interpolationmode none
attr recordingmode vector
attr source packetLength(packetDropReasonIsQueueOverflow(packetDropped))
attr title "dropped packet lengths: queue overflow"
attr unit b
vector 217 ResourceNetwork.mdAutonomousVehicle[3].wlan[0].queue flowQueueingTime:vector ETV
attr interpolationmode none
attr recordingmode vector
attr source queueingTime(demuxFlow(packetPulled))
attr title "flow queueing times"
attr unit s
vector 218 ResourceNetwork.mdAutonomousVehicle[3].wlan[0].queue flowIncomingDataRate:vector ETV
attr interpolationmode linear
attr recordingmode vector
attr source throughput(flowPacketLength(demuxFlow(packetPushStarted)))
attr title "flow specific incoming data rate"
attr unit bps
vector 219 ResourceNetwork.mdAutonomousVehicle[3].wlan[0].queue flowOutgoingDataRate:vector ETV
attr interpolationmode linear
attr recordingmode vector
attr source throughput(flowPacketLength(demuxFlow(packetPulled)))
attr title "flow specific outgoing data rate"
attr unit bps
vector 220 ResourceNetwork.mdAutonomousVehicle[3].wlan[0].mac passedUpPk:vector(packetBytes) ETV
attr interpolationmode none
attr recordingmode vector(packetBytes)
attr source packetSentToUpper
attr title "packets passed to higher layer, packetBytes"
vector 221 ResourceNetwork.mdAutonomousVehicle[3].wlan[0].mac sentDownPk:vector(packetBytes) ETV
attr interpolationmode none
attr recordingmode vector(packetBytes)
attr source packetSentToLower
attr title "packets sent to lower layer, packetBytes"
vector 222 ResourceNetwork.mdAutonomousVehicle[3].wlan[0].mac rcvdPkFromHl:vector(packetBytes) ETV
attr interpolationmode none
attr recordingmode vector(packetBytes)
attr source packetReceivedFromUpper
attr title "packets received from higher layer, packetBytes"
vector 223 ResourceNetwork.mdAutonomousVehicle[3].wlan[0].mac rcvdPkFromLl:vector(packetBytes) ETV
attr interpolationmode none
attr recordingmode vector(packetBytes)
attr source packetReceivedFromLower
attr title "packets received from lower layer, packetBytes"
vector 224 ResourceNetwork.mdAutonomousVehicle[3].wlan[0].mac packetDropIncorrectlyReceived:vector(packetBytes) ETV
attr interpolationmode none
attr recordingmode vector(packetBytes)
attr source packetDropReasonIsIncorrectlyReceived(packetDropped)
attr title "packet drop: incorrectly received, packetBytes"
vector 225 ResourceNetwork.mdAutonomousVehicle[3].wlan[0].mac packetDropInterfaceDown:vector(packetBytes) ETV
attr interpolationmode none
attr recordingmode vector(packetBytes)
attr source packetDropReasonIsInterfaceDown(packetDropped)
attr title "packet drop: interface down, packetBytes"
vector 226 ResourceNetwork.mdAutonomousVehicle[3].wlan[0].mac packetDropNotAddressedToUs:vector(packetBytes) ETV
attr interpolationmode none
attr recordingmode vector(packetBytes)
attr source packetDropReasonIsNotAddressedToUs(packetDropped)
attr title "packet drop: not addressed to us, packetBytes"
vector 227 ResourceNetwork.mdAutonomousVehicle[3].wlan[0].radio radioMode:vector ETV
attr interpolationmode sample-hold
attr recordingmode vector
attr source radioModeChanged
attr title "Radio mode"
vector 228 ResourceNetwork.mdAutonomousVehicle[3].wlan[0].radio receptionState:vector ETV
attr interpolationmode sample-hold
attr recordingmode vector
attr source receptionStateChanged
attr title "Radio reception state"
vector 229 ResourceNetwork.mdAutonomousVehicle[3].wlan[0].radio transmissionState:vector ETV
attr interpolationmode sample-hold
attr recordingmode vector
attr source transmissionStateChanged
attr title "Radio transmission state"
vector 230 ResourceNetwork.mdAutonomousVehicle[3].wlan[0] packetDropInterfaceDown:vector(packetBytes) ETV
attr interpolationmode none
attr recordingmode vector(packetBytes)
attr source packetDropReasonIsInterfaceDown(packetDropped)
attr title "packet drops: interface down, packetBytes"
vector 231 ResourceNetwork.mdAutonomousVehicle[3].wlan[0] packetDropNoCarrier:vector(packetBytes) ETV
attr interpolationmode none
attr recordingmode vector(packetBytes)
attr source packetDropReasonIsNoCarrier(packetDropped)
attr title "packet drops: no carrier, packetBytes"
vector 232 ResourceNetwork.mdAutonomousVehicle[3].ipv4.ip packetDropAddressResolutionFailed:vector(packetBytes) ETV
attr interpolationmode none
attr recordingmode vector(packetBytes)
attr source packetDropReasonIsAddressResolutionFailed(packetDropped)
attr title "packet drop: address resolution failed, packetBytes"
vector 233 ResourceNetwork.mdAutonomousVehicle[3].ipv4.ip packetDropHopLimitReached:vector(packetBytes) ETV
attr interpolationmode none
attr recordingmode vector(packetBytes)
attr source packetDropReasonIsHopLimitReached(packetDropped)
attr title "packet drop: hop limit reached, packetBytes"
vector 234 ResourceNetwork.mdAutonomousVehicle[3].ipv4.ip packetDropForwardingDisabled:vector(packetBytes) ETV
attr interpolationmode none
attr recordingmode vector(packetBytes)
attr source packetDropReasonIsForwardingDisabled(packetDropped)
attr title "packet drop: forwarding disabled, packetBytes"
vector 235 ResourceNetwork.mdAutonomousVehicle[3].ipv4.ip packetDropNoInterfaceFound:vector(packetBytes) ETV
attr interpolationmode none
attr recordingmode vector(packetBytes)
attr source packetDropReasonIsNoInterfaceFound(packetDropped)
attr title "packet drop: no interface found, packetBytes"
vector 236 ResourceNetwork.mdAutonomousVehicle[3].ipv4.ip packetDropNoRouteFound:vector(packetBytes) ETV
attr interpolationmode none
attr recordingmode vector(packetBytes)
attr source packetDropReasonIsNoRouteFound(packetDropped)
attr title "packet drop: no route found, packetBytes"
vector 237 ResourceNetwork.mdAutonomousVehicle[3].ipv4.ip packetDropUndefined:vector(packetBytes) ETV
attr interpolationmode none
attr recordingmode vector(packetBytes)
attr source packetDropReasonIsUndefined(packetDropped)
attr title "packet drop: undefined, packetBytes"
vector 238 ResourceNetwork.mdAutonomousVehicle[3].udp packetSent:vector(packetBytes) ETV
attr interpolationmode none
attr recordingmode vector(packetBytes)
attr source packetSent
attr title "packets sent, packetBytes"
vector 239 ResourceNetwork.mdAutonomousVehicle[3].udp packetReceived:vector(packetBytes) ETV
attr interpolationmode none
attr recordingmode vector(packetBytes)
attr source packetReceived
attr title "packets received, packetBytes"
vector 240 ResourceNetwork.mdAutonomousVehicle[3].udp passedUpPk:vector(count) ETV
attr interpolationmode none
attr recordingmode vector(count)
attr source packetSentToUpper
attr title "packets passed up, count"
vector 241 ResourceNetwork.mdAutonomousVehicle[3].udp droppedPkWrongPort:vector(count) ETV
attr interpolationmode none
attr recordingmode vector(count)
attr source packetDropReasonIsNoPortFound(packetDropped)
attr title "packets dropped (wrong port), count"
vector 242 ResourceNetwork.mdAutonomousVehicle[3].udp droppedPkBadChecksum:vector(count) ETV
attr interpolationmode none
attr recordingmode vector(count)
attr source packetDropReasonIsIncorrectlyReceived(packetDropped)
attr title "packets dropped (checksum error), count"
vector 243 ResourceNetwork.mdAutonomousVehicle[3].app[0] packetReceived:vector(packetBytes) ETV
attr interpolationmode none
attr recordingmode vector(packetBytes)
attr source packetReceived
attr title "packets received, packetBytes"
vector 244 ResourceNetwork.mdAutonomousVehicle[3].app[0] throughput:vector ETV
attr recordingmode vector
attr source throughput(packetReceived)
attr title throughput
attr unit bps
vector 245 ResourceNetwork.mdAutonomousVehicle[3].app[0] packetSent:vector(packetBytes) ETV
attr interpolationmode none
attr recordingmode vector(packetBytes)
attr source packetSent
attr title "packets sent, packetBytes"
vector 246 ResourceNetwork.mdAutonomousVehicle[3].app[0] rcvdPkLifetime:vector ETV
attr interpolationmode none
attr recordingmode vector
attr source dataAge(packetReceived)
attr title "received packet lifetime"
attr unit s
vector 247 ResourceNetwork.mdAutonomousVehicle[3].app[0] rcvdPkSeqNo:vector ETV
attr interpolationmode none
attr recordingmode vector
attr source appPkSeqNo(packetReceived)
attr title "received packet sequence number"
vector 248 ResourceNetwork.mdAutonomousVehicle[4].lo[0].lo rcvdPkFromHl:vector(packetBytes) ETV
attr interpolationmode none
attr recordingmode vector(packetBytes)
attr source packetReceivedFromUpper
attr title "packets received from higher layer, packetBytes"
vector 249 ResourceNetwork.mdAutonomousVehicle[4].lo[0].lo passedUpPk:vector(packetBytes) ETV
attr interpolationmode none
attr recordingmode vector(packetBytes)
attr source packetSentToUpper
attr title "packets passed to higher layer, packetBytes"
vector 250 ResourceNetwork.mdAutonomousVehicle[4].lo[0] packetDropInterfaceDown:vector(packetBytes) ETV
attr interpolationmode none
attr recordingmode vector(packetBytes)
attr source packetDropReasonIsInterfaceDown(packetDropped)
attr title "packet drops: interface down, packetBytes"
vector 251 ResourceNetwork.mdAutonomousVehicle[4].lo[0] packetDropNoCarrier:vector(packetBytes) ETV
attr interpolationmode none
attr recordingmode vector(packetBytes)
attr source packetDropReasonIsNoCarrier(packetDropped)
attr title "packet drops: no carrier, packetBytes"
vector 252 ResourceNetwork.mdAutonomousVehicle[4].wlan[0].queue queueLength:vector ETV
attr autoWarmupFilter false
attr interpolationmode sample-hold
attr recordingmode vector
attr source "warmup(atomic(constant0(packetPushEnded) + count(packetPushStarted) - count(packetPulled) - count(packetRemoved) - count(packetDropped)))"
attr title "queue length"
attr unit pk
vector 253 ResourceNetwork.mdAutonomousVehicle[4].wlan[0].queue queueBitLength:vector ETV
attr autoWarmupFilter false
attr interpolationmode sample-hold
attr recordingmode vector
attr source "warmup(atomic(constant0(packetPushEnded) + sum(packetLength(packetPushStarted)) - sum(packetLength(packetPulled)) - sum(packetLength(packetRemoved)) - sum(packetLength(packetDropped))))"
attr title "queue bit length"
attr unit b
vector 254 ResourceNetwork.mdAutonomousVehicle[4].wlan[0].queue queueingTime:vector ETV
attr interpolationmode none
attr recordingmode vector
attr source queueingTime(packetPulled)
attr title "queueing times"
attr unit s
vector 255 ResourceNetwork.mdAutonomousVehicle[4].wlan[0].queue incomingPacketLengths:vector ETV
attr interpolationmode none
attr recordingmode vector
attr source packetLength(packetPushStarted)
attr title "incoming packet lengths"
attr unit b
vector 256 ResourceNetwork.mdAutonomousVehicle[4].wlan[0].queue incomingDataRate:vector ETV
attr interpolationmode linear
attr recordingmode vector
attr source throughput(packetPushStarted)
attr title "incoming datarate"
attr unit bps
vector 257 ResourceNetwork.mdAutonomousVehicle[4].wlan[0].queue outgoingPacketLengths:vector ETV
attr interpolationmode none
attr recordingmode vector
attr source packetLength(packetPulled)
attr title "outgoing packet lengths"
attr unit b
vector 258 ResourceNetwork.mdAutonomousVehicle[4].wlan[0].queue outgoingDataRate:vector ETV
attr interpolationmode linear
attr recordingmode vector
attr source throughput(packetPulled)
attr title "outgoing datarate"
attr unit bps
vector 259 ResourceNetwork.mdAutonomousVehicle[4].wlan[0].queue droppedPacketLengthsQueueOverflow:vector ETV
attr interpolationmode none
attr recordingmode vector
attr source packetLength(packetDropReasonIsQueueOverflow(packetDropped))
attr title "dropped packet lengths: queue overflow"
attr unit b
vector 260 ResourceNetwork.mdAutonomousVehicle[4].wlan[0].queue flowQueueingTime:vector ETV
attr interpolationmode none
attr recordingmode vector
attr source queueingTime(demuxFlow(packetPulled))
attr title "flow queueing times"
attr unit s
vector 261 ResourceNetwork.mdAutonomousVehicle[4].wlan[0].queue flowIncomingDataRate:vector ETV
attr interpolationmode linear
attr recordingmode vector
attr source throughput(flowPacketLength(demuxFlow(packetPushStarted)))
attr title "flow specific incoming data rate"
attr unit bps
vector 262 ResourceNetwork.mdAutonomousVehicle[4].wlan[0].queue flowOutgoingDataRate:vector ETV
attr interpolationmode linear
attr recordingmode vector
attr source throughput(flowPacketLength(demuxFlow(packetPulled)))
attr title "flow specific outgoing data rate"
attr unit bps
vector 263 ResourceNetwork.mdAutonomousVehicle[4].wlan[0].mac passedUpPk:vector(packetBytes) ETV
attr interpolationmode none
attr recordingmode vector(packetBytes)
attr source packetSentToUpper
attr title "packets passed to higher layer, packetBytes"
vector 264 ResourceNetwork.mdAutonomousVehicle[4].wlan[0].mac sentDownPk:vector(packetBytes) ETV
attr interpolationmode none
attr recordingmode vector(packetBytes)
attr source packetSentToLower
attr title "packets sent to lower layer, packetBytes"
vector 265 ResourceNetwork.mdAutonomousVehicle[4].wlan[0].mac rcvdPkFromHl:vector(packetBytes) ETV
attr interpolationmode none
attr recordingmode vector(packetBytes)
attr source packetReceivedFromUpper
attr title "packets received from higher layer, packetBytes"
vector 266 ResourceNetwork.mdAutonomousVehicle[4].wlan[0].mac rcvdPkFromLl:vector(packetBytes) ETV
attr interpolationmode none
attr recordingmode vector(packetBytes)
attr source packetReceivedFromLower
attr title "packets received from lower layer, packetBytes"
vector 267 ResourceNetwork.mdAutonomousVehicle[4].wlan[0].mac packetDropIncorrectlyReceived:vector(packetBytes) ETV
attr interpolationmode none
attr recordingmode vector(packetBytes)
attr source packetDropReasonIsIncorrectlyReceived(packetDropped)
attr title "packet drop: incorrectly received, packetBytes"
vector 268 ResourceNetwork.mdAutonomousVehicle[4].wlan[0].mac packetDropInterfaceDown:vector(packetBytes) ETV
attr interpolationmode none
attr recordingmode vector(packetBytes)
attr source packetDropReasonIsInterfaceDown(packetDropped)
attr title "packet drop: interface down, packetBytes"
vector 269 ResourceNetwork.mdAutonomousVehicle[4].wlan[0].mac packetDropNotAddressedToUs:vector(packetBytes) ETV
attr interpolationmode none
attr recordingmode vector(packetBytes)
attr source packetDropReasonIsNotAddressedToUs(packetDropped)
attr title "packet drop: not addressed to us, packetBytes"
vector 270 ResourceNetwork.mdAutonomousVehicle[4].wlan[0].radio radioMode:vector ETV
attr interpolationmode sample-hold
attr recordingmode vector
attr source radioModeChanged
attr title "Radio mode"
vector 271 ResourceNetwork.mdAutonomousVehicle[4].wlan[0].radio receptionState:vector ETV
attr interpolationmode sample-hold
attr recordingmode vector
attr source receptionStateChanged
attr title "Radio reception state"
vector 272 ResourceNetwork.mdAutonomousVehicle[4].wlan[0].radio transmissionState:vector ETV
attr interpolationmode sample-hold
attr recordingmode vector
attr source transmissionStateChanged
attr title "Radio transmission state"
vector 273 ResourceNetwork.mdAutonomousVehicle[4].wlan[0] packetDropInterfaceDown:vector(packetBytes) ETV
attr interpolationmode none
attr recordingmode vector(packetBytes)
attr source packetDropReasonIsInterfaceDown(packetDropped)
attr title "packet drops: interface down, packetBytes"
vector 274 ResourceNetwork.mdAutonomousVehicle[4].wlan[0] packetDropNoCarrier:vector(packetBytes) ETV
attr interpolationmode none
attr recordingmode vector(packetBytes)
attr source packetDropReasonIsNoCarrier(packetDropped)
attr title "packet drops: no carrier, packetBytes"
vector 275 ResourceNetwork.mdAutonomousVehicle[4].ipv4.ip packetDropAddressResolutionFailed:vector(packetBytes) ETV
attr interpolationmode none
attr recordingmode vector(packetBytes)
attr source packetDropReasonIsAddressResolutionFailed(packetDropped)
attr title "packet drop: address resolution failed, packetBytes"
vector 276 ResourceNetwork.mdAutonomousVehicle[4].ipv4.ip packetDropHopLimitReached:vector(packetBytes) ETV
attr interpolationmode none
attr recordingmode vector(packetBytes)
attr source packetDropReasonIsHopLimitReached(packetDropped)
attr title "packet drop: hop limit reached, packetBytes"
vector 277 ResourceNetwork.mdAutonomousVehicle[4].ipv4.ip packetDropForwardingDisabled:vector(packetBytes) ETV
attr interpolationmode none
attr recordingmode vector(packetBytes)
attr source packetDropReasonIsForwardingDisabled(packetDropped)
attr title "packet drop: forwarding disabled, packetBytes"
vector 278 ResourceNetwork.mdAutonomousVehicle[4].ipv4.ip packetDropNoInterfaceFound:vector(packetBytes) ETV
attr interpolationmode none
attr recordingmode vector(packetBytes)
attr source packetDropReasonIsNoInterfaceFound(packetDropped)
attr title "packet drop: no interface found, packetBytes"
vector 279 ResourceNetwork.mdAutonomousVehicle[4].ipv4.ip packetDropNoRouteFound:vector(packetBytes) ETV
attr interpolationmode none
attr recordingmode vector(packetBytes)
attr source packetDropReasonIsNoRouteFound(packetDropped)
attr title "packet drop: no route found, packetBytes"
vector 280 ResourceNetwork.mdAutonomousVehicle[4].ipv4.ip packetDropUndefined:vector(packetBytes) ETV
attr interpolationmode none
attr recordingmode vector(packetBytes)
attr source packetDropReasonIsUndefined(packetDropped)
attr title "packet drop: undefined, packetBytes"
vector 281 ResourceNetwork.mdAutonomousVehicle[4].udp packetSent:vector(packetBytes) ETV
attr interpolationmode none
attr recordingmode vector(packetBytes)
attr source packetSent
attr title "packets sent, packetBytes"
vector 282 ResourceNetwork.mdAutonomousVehicle[4].udp packetReceived:vector(packetBytes) ETV
attr interpolationmode none
attr recordingmode vector(packetBytes)
attr source packetReceived
attr title "packets received, packetBytes"
vector 283 ResourceNetwork.mdAutonomousVehicle[4].udp passedUpPk:vector(count) ETV
attr interpolationmode none
attr recordingmode vector(count)
attr source packetSentToUpper
attr title "packets passed up, count"
vector 284 ResourceNetwork.mdAutonomousVehicle[4].udp droppedPkWrongPort:vector(count) ETV
attr interpolationmode none
attr recordingmode vector(count)
attr source packetDropReasonIsNoPortFound(packetDropped)
attr title "packets dropped (wrong port), count"
vector 285 ResourceNetwork.mdAutonomousVehicle[4].udp droppedPkBadChecksum:vector(count) ETV
attr interpolationmode none
attr recordingmode vector(count)
attr source packetDropReasonIsIncorrectlyReceived(packetDropped)
attr title "packets dropped (checksum error), count"
vector 286 ResourceNetwork.mdAutonomousVehicle[4].app[0] packetReceived:vector(packetBytes) ETV
attr interpolationmode none
attr recordingmode vector(packetBytes)
attr source packetReceived
attr title "packets received, packetBytes"
vector 287 ResourceNetwork.mdAutonomousVehicle[4].app[0] throughput:vector ETV
attr recordingmode vector
attr source throughput(packetReceived)
attr title throughput
attr unit bps
vector 288 ResourceNetwork.mdAutonomousVehicle[4].app[0] packetSent:vector(packetBytes) ETV
attr interpolationmode none
attr recordingmode vector(packetBytes)
attr source packetSent
attr title "packets sent, packetBytes"
vector 289 ResourceNetwork.mdAutonomousVehicle[4].app[0] rcvdPkLifetime:vector ETV
attr interpolationmode none
attr recordingmode vector
attr source dataAge(packetReceived)
attr title "received packet lifetime"
attr unit s
vector 290 ResourceNetwork.mdAutonomousVehicle[4].app[0] rcvdPkSeqNo:vector ETV
attr interpolationmode none
attr recordingmode vector
attr source appPkSeqNo(packetReceived)
attr title "received packet sequence number"
vector 291 ResourceNetwork.mdAutonomousVehicle[5].lo[0].lo rcvdPkFromHl:vector(packetBytes) ETV
attr interpolationmode none
attr recordingmode vector(packetBytes)
attr source packetReceivedFromUpper
attr title "packets received from higher layer, packetBytes"
vector 292 ResourceNetwork.mdAutonomousVehicle[5].lo[0].lo passedUpPk:vector(packetBytes) ETV
attr interpolationmode none
attr recordingmode vector(packetBytes)
attr source packetSentToUpper
attr title "packets passed to higher layer, packetBytes"
vector 293 ResourceNetwork.mdAutonomousVehicle[5].lo[0] packetDropInterfaceDown:vector(packetBytes) ETV
attr interpolationmode none
attr recordingmode vector(packetBytes)
attr source packetDropReasonIsInterfaceDown(packetDropped)
attr title "packet drops: interface down, packetBytes"
vector 294 ResourceNetwork.mdAutonomousVehicle[5].lo[0] packetDropNoCarrier:vector(packetBytes) ETV
[...]
532	22133	0.002001744044	2
532	22149	0.002004958683	1
532	22180	0.002007539605	3
532	22247	0.002011018005	2
532	22277	0.002013410675	1
532	22295	0.002021190845	3
532	22334	0.002024669245	2
532	22349	0.002025896967	1
532	22366	0.002027919899	3
532	22389	0.002031398299	1
532	22411	0.002043973223	3
532	22434	0.002047451623	1
532	22456	0.00205548829	3
532	22479	0.00205896669	1
532	22505	0.002068238307	3
532	22599	0.002071716707	2
532	22600	0.002071716707	3
532	22694	0.002075195107	2
532	22734	0.002075972311	3
532	22839	0.002079450711	2
532	22843	0.002079863585	3
532	22905	0.002083341985	2
532	22922	0.002083465566	1
532	22927	0.002084140261	3
532	22950	0.002087618661	1
532	22972	0.002095603268	3
532	23011	0.002099081668	2
532	23026	0.002100177067	1
532	23043	0.002106807783	3
532	23082	0.002110286183	2
532	23111	0.002111046027	3
532	23152	0.002114524427	2
532	23186	0.002116077283	3
532	23221	0.002119555683	2
532	23222	0.002119555683	3
532	23248	0.002123034083	1
532	23270	0.00213194534	3
532	23308	0.00213542374	2
532	23340	0.00213890071	3
532	23380	0.00214237911	2
532	23409	0.002143369527	3
532	23434	0.002146847927	1
532	23453	0.002148526488	3
532	23476	0.002152004888	1
532	23498	0.002153173108	3
532	23521	0.002156651508	1
532	23543	0.002158743108	3
532	23596	0.002162221508	2
532	23625	0.002165500008	1
532	23643	0.002168294655	3
532	23680	0.002171773055	1
532	23686	0.002172033386	3
532	23727	0.002175511786	2
532	23756	0.002176949204	3
532	23797	0.002180427604	2
532	23813	0.002181927265	1
532	23830	0.002185442177	3
532	23882	0.002188920577	2
532	23883	0.002188920577	3
532	23940	0.002192398977	2
532	23958	0.002194503906	1
532	23975	0.002195305922	3
532	23998	0.002198784322	1
532	24020	0.002199924193	3
532	24075	0.002203402593	2
532	24117	0.002205335524	1
532	24120	0.002206025796	3
532	24143	0.002209504196	1
532	24165	0.002220388925	3
532	24188	0.002223867325	1
532	24210	0.002225491802	3
532	24277	0.002228970202	2
532	24278	0.002228970202	3
532	24328	0.002232448602	2
532	24334	0.002233113671	1
532	24351	0.002234608264	3
532	24406	0.002238086664	2
532	24450	0.002239715611	3
532	24474	0.002243194011	1
532	24496	0.002245539147	3
532	24519	0.002249017547	1
532	24541	0.002251164821	3
532	24580	0.002254643221	2
532	24609	0.00225671277	1
532	24611	0.002256942512	3
532	24651	0.002260420912	2
532	24666	0.002261266111	1
532	24683	0.002267237489	3
532	24754	0.002270715889	2
532	24808	0.002273425934	1
532	24825	0.002273859409	3
532	24861	0.002277337809	2
532	24866	0.002277907193	1
532	24883	0.002281007599	3
532	24921	0.002284485999	2
532	24937	0.002287465393	1
532	24954	0.002290625679	3
532	24997	0.002294104079	2
532	25038	0.002295002856	3
532	25120	0.002298481256	2
532	25121	0.002298481256	3
532	25189	0.002301959656	2
532	25206	0.00230399618	1
532	25237	0.00230710656	3
532	25272	0.00231058496	2
532	25275	0.002310977646	1
532	25294	0.0023144474	3
532	25333	0.0023179258	2
532	25348	0.002320813992	1
532	25365	0.002322191977	3
532	25388	0.002325670377	1
532	25424	0.002326794556	3
532	25475	0.002330272956	2
532	25493	0.002332346473	1
532	25510	0.002337524561	3
532	25565	0.002341002961	2
532	25606	0.002341927047	3
532	25648	0.002345405447	2
532	25664	0.002346675654	1
532	25681	0.002349001664	3
532	25704	0.002352480064	1
532	25740	0.002359120335	3
532	25775	0.002362598735	2
532	25778	0.002362913839	1
532	25797	0.002365856034	3
532	25820	0.002369334434	1
532	25856	0.002378189417	3
532	25905	0.002381667817	2
532	25912	0.0023822411	3
532	25952	0.0023857195	2
532	25967	0.002387070767	1
532	25998	0.002395308012	3
532	26049	0.002398786412	2
532	26087	0.00240148425	3
532	26138	0.00240496265	2
532	26139	0.00240496265	3
532	26209	0.00240844105	2
532	26236	0.002410024801	1
532	26254	0.002413815105	3
532	26292	0.002417293505	1
532	26297	0.002417362561	3
532	26352	0.002420840961	2
532	26379	0.002421342879	3
532	26447	0.002424821279	2
532	26448	0.002424821279	3
532	26519	0.002428299679	2
532	26553	0.002430753765	3
532	26621	0.002434232165	2
532	26622	0.002434232165	3
532	26692	0.002437710565	2
532	26722	0.002439838198	1
532	26740	0.002440699023	3
532	26763	0.002444177423	1
532	26800	0.002448572324	3
532	26835	0.002452050724	2
532	26837	0.002452084138	1
532	26870	0.00247426194	3
532	26921	0.00247774034	2
532	26997	0.002479032502	1
532	26998	0.002479053881	3
532	27074	0.002482532281	2
532	27097	0.002483692918	1
532	27114	0.002492446521	3
532	27152	0.002495924921	2
532	27172	0.002497214742	3
532	27222	0.002500693142	1
532	27224	0.002500715017	3
532	27265	0.002504193417	2
532	27280	0.002505773611	1
532	27297	0.002510257096	3
532	27334	0.002513735496	1
532	27342	0.002514434424	3
532	27381	0.002517912824	2
532	27404	0.002518798947	3
532	27467	0.002522277347	2
532	27469	0.002522355376	3
532	27521	0.002525833776	2
532	27522	0.002525833776	3
532	27548	0.002529312176	1
532	27570	0.002531024186	3
532	27608	0.002534502586	2
532	27609	0.002534502586	3
532	27638	0.002537980986	1
532	27660	0.002545711758	3
532	27734	0.002549190158	2
532	27787	0.002551542012	3
532	27868	0.002555020412	2
532	27915	0.002558065853	1
532	27917	0.002558447254	3
532	27973	0.002561925654	2
532	28001	0.002564199138	1
532	28018	0.002570395669	3
532	28055	0.002573874069	1
532	28061	0.00257431531	3
532	28101	0.00257779371	2
532	28102	0.00257779371	3
532	28146	0.00258127211	2
532	28162	0.002584222885	1
532	28179	0.002585336332	3
532	28218	0.002588814732	2
532	28233	0.002590313324	1
532	28250	0.002594780289	3
532	28317	0.002598258689	2
532	28321	0.002598421656	3
532	28386	0.002601900056	2
532	28403	0.002602869872	1
532	28420	0.002603869855	3
532	28449	0.002607348255	1
532	28471	0.002614847274	3
532	28501	0.002618325674	1
532	28524	0.002627896436	3
532	28576	0.002631374836	2
532	28596	0.002632099639	3
532	28674	0.002635578039	2
532	28709	0.00263802913	3
532	28745	0.00264150753	1
532	28764	0.002649788916	3
532	28802	0.002653267316	2
532	28803	0.002653267316	3
532	28848	0.002656745716	2
532	28863	0.002658179531	1
532	28880	0.002659781649	3
532	28919	0.002663260049	2
532	28934	0.002664900643	1
532	28951	0.002665829757	3
532	28990	0.002669308157	2
532	29005	0.002671459081	1
532	29022	0.002674532081	3
532	29045	0.002678010481	1
532	29067	0.00268724878	3
532	29106	0.00269072718	2
532	29121	0.00269279417	1
532	29152	0.002695139062	3
532	29203	0.002698617462	2
532	29224	0.002699519516	3
532	29276	0.002702997916	2
532	29292	0.002705658973	1
532	29309	0.002719455495	3
532	29332	0.002722933895	1
532	29354	0.002725867037	3
532	29393	0.002729345437	2
532	29412	0.002731193574	3
532	29462	0.002734671974	2
532	29463	0.002734671974	3
532	29489	0.002738150374	1
532	29511	0.002739550392	3
532	29534	0.002743028792	1
532	29570	0.002744302214	3
532	29639	0.002747780614	2
532	29666	0.002748473	3
532	29736	0.0027519514	2
532	29768	0.002755269174	1
532	29799	0.002758483801	3
532	29834	0.002761962201	2
532	29839	0.00276256309	1
532	29856	0.002768354001	3
532	29879	0.002771832401	1
532	29901	0.002775464143	3
532	29939	0.002778942543	2
532	29959	0.002781164889	3
532	30027	0.002784643289	2
532	30054	0.002786268428	1
532	30072	0.002795276474	3
532	30110	0.002798754874	2
532	30130	0.002800689991	3
532	30165	0.002804168391	1
532	30184	0.002805162772	3
536	610	0.000042993586	1
536	712	0.000052119089	2
536	1579	0.000139281081	3
536	1736	0.000155944188	4
536	1852	0.000172775216	5
536	2153	0.000204455215	6
536	2540	0.00022189773	7
536	2585	0.000231554648	8
536	2630	0.000249514695	9
536	3033	0.000272906131	10
536	3389	0.000299845885	11
536	4654	0.000410719452	12
536	4699	0.000416140012	13
536	4955	0.000441588853	14
536	5071	0.000451295822	15
536	5132	0.000458323818	16
536	5346	0.000484365166	17
536	5757	0.000513660643	18
536	5802	0.000520061511	19
536	6389	0.000566348788	20
536	6434	0.000572861208	21
536	6564	0.000588634483	22
536	6625	0.000592681045	23
536	7752	0.000677071415	24
536	7797	0.000683438726	25
536	8013	0.000715113747	26
536	8058	0.00073258327	27
536	8414	0.000757978129	28
536	8588	0.000773404457	29
536	8889	0.000794414838	30
536	9005	0.000804784688	31
536	9345	0.000831272024	32
536	9390	0.000836245218	33
536	9449	0.000842311693	34
536	9680	0.000860568426	35
536	9871	0.000881071118	34
536	10046	0.000891967539	35
536	10187	0.000904251398	36
536	10232	0.000911880232	37
536	11210	0.001000380574	38
536	11397	0.001019887884	39
536	11556	0.001032624883	40
536	11587	0.001036437226	41
536	11790	0.001052059995	42
536	11819	0.001055538395	43
536	11993	0.001067513747	44
536	13376	0.001169571061	45
536	13563	0.001199745133	46
536	13608	0.001204642244	47
536	13724	0.001217700588	48
536	13769	0.001222331823	49
536	14456	0.001291280335	50
536	16013	0.001435595831	51
536	16058	0.001452624546	52
536	16927	0.001514932242	53
536	17409	0.001562510469	54
536	17456	0.001566357255	55
536	18329	0.001636365693	56
536	18786	0.00167893179	57
536	19324	0.001718529799	58
536	19369	0.00172578243	59
536	19428	0.001730771961	60
536	19643	0.001753071118	59
536	19686	0.001758513187	60
536	19843	0.00177015095	61
536	20465	0.001823418458	62
536	20510	0.001834793389	63
536	20938	0.001874999649	64
536	21014	0.001881207476	65
536	21311	0.00191030454	66
536	21456	0.001924298335	67
536	21501	0.001929767373	68
536	21546	0.001937738713	69
536	21961	0.001971915573	70
536	22077	0.001988029965	71
536	22393	0.002031398299	72
536	22438	0.002047451623	73
536	22483	0.00205896669	74
536	22954	0.002087618661	75
536	23252	0.002123034083	76
536	23480	0.002152004888	77
536	23525	0.002156651508	78
536	23684	0.002171773055	79
536	23887	0.002188920577	80
536	24002	0.002198784322	81
536	24147	0.002209504196	82
536	24192	0.002223867325	83
536	24478	0.002243194011	84
536	24523	0.002249017547	85
536	25392	0.002325670377	86
536	25708	0.002352480064	87
536	25824	0.002369334434	88
536	26296	0.002417293505	89
536	26767	0.002444177423	90
536	27338	0.002513735496	91
536	27552	0.002529312176	92
536	27613	0.002534502586	93
536	27642	0.002537980986	94
536	28059	0.002573874069	95
536	28106	0.00257779371	96
536	28453	0.002607348255	97
536	28505	0.002618325674	98
536	28508	0.002625071118	97
536	28807	0.002653267316	98
536	29049	0.002678010481	99
536	29336	0.002722933895	100
536	29493	0.002738150374	101
536	29538	0.002743028792	102
536	29883	0.002771832401	103
537	610	0.000042993586	8560
537	712	0.000052119089	17120
537	1579	0.000139281081	25680
537	1736	0.000155944188	34240
537	1852	0.000172775216	42800
537	2153	0.000204455215	51360
537	2540	0.00022189773	59920
537	2585	0.000231554648	68480
537	2630	0.000249514695	77040
537	3033	0.000272906131	85600
537	3389	0.000299845885	94160
537	4654	0.000410719452	102720
537	4699	0.000416140012	111280
537	4955	0.000441588853	119840
537	5071	0.000451295822	128400
537	5132	0.000458323818	136960
537	5346	0.000484365166	145520
537	5757	0.000513660643	154080
537	5802	0.000520061511	162640
537	6389	0.000566348788	171200
537	6434	0.000572861208	179760
537	6564	0.000588634483	188320
537	6625	0.000592681045	196880
537	7752	0.000677071415	205440
537	7797	0.000683438726	214000
537	8013	0.000715113747	222560
537	8058	0.00073258327	231120
537	8414	0.000757978129	239680
537	8588	0.000773404457	248240
537	8889	0.000794414838	256800
537	9005	0.000804784688	265360
537	9345	0.000831272024	273920
537	9390	0.000836245218	282480
537	9449	0.000842311693	291040
537	9680	0.000860568426	299600
537	9871	0.000881071118	291040
537	10046	0.000891967539	299600
537	10187	0.000904251398	308160
537	10232	0.000911880232	316720
537	11210	0.001000380574	325280
537	11397	0.001019887884	333840
537	11556	0.001032624883	342400
537	11587	0.001036437226	350960
537	11790	0.001052059995	359520
537	11819	0.001055538395	368080
537	11993	0.001067513747	376640
537	13376	0.001169571061	385200
537	13563	0.001199745133	393760
537	13608	0.001204642244	402320
537	13724	0.001217700588	410880
537	13769	0.001222331823	419440
537	14456	0.001291280335	428000
537	16013	0.001435595831	436560
537	16058	0.001452624546	445120
537	16927	0.001514932242	453680
537	17409	0.001562510469	462240
537	17456	0.001566357255	470800
537	18329	0.001636365693	479360
537	18786	0.00167893179	487920
537	19324	0.001718529799	496480
537	19369	0.00172578243	505040
537	19428	0.001730771961	513600
537	19643	0.001753071118	505040
537	19686	0.001758513187	513600
537	19843	0.00177015095	522160
537	20465	0.001823418458	530720
537	20510	0.001834793389	539280
537	20938	0.001874999649	547840
537	21014	0.001881207476	556400
537	21311	0.00191030454	564960
537	21456	0.001924298335	573520
537	21501	0.001929767373	582080
537	21546	0.001937738713	590640
537	21961	0.001971915573	599200
537	22077	0.001988029965	607760
537	22393	0.002031398299	616320
537	22438	0.002047451623	624880
537	22483	0.00205896669	633440
537	22954	0.002087618661	642000
537	23252	0.002123034083	650560
537	23480	0.002152004888	659120
537	23525	0.002156651508	667680
537	23684	0.002171773055	676240
537	23887	0.002188920577	684800
537	24002	0.002198784322	693360
537	24147	0.002209504196	701920
537	24192	0.002223867325	710480
537	24478	0.002243194011	719040
537	24523	0.002249017547	727600
537	25392	0.002325670377	736160
537	25708	0.002352480064	744720
537	25824	0.002369334434	753280
537	26296	0.002417293505	761840
537	26767	0.002444177423	770400
537	27338	0.002513735496	778960
537	27552	0.002529312176	787520
537	27613	0.002534502586	796080
537	27642	0.002537980986	804640
537	28059	0.002573874069	813200
537	28106	0.00257779371	821760
537	28453	0.002607348255	830320
537	28505	0.002618325674	838880
537	28508	0.002625071118	830320
537	28807	0.002653267316	838880
537	29049	0.002678010481	847440
537	29336	0.002722933895	856000
537	29493	0.002738150374	864560
537	29538	0.002743028792	873120
537	29883	0.002771832401	881680
538	9871	0.000881071118	0.000838077532
538	19643	0.001753071118	0.001700952029
538	28508	0.002625071118	0.002485790037
539	610	0.000042993586	8560
539	712	0.000052119089	8560
539	1579	0.000139281081	8560
539	1736	0.000155944188	8560
539	1852	0.000172775216	8560
539	2153	0.000204455215	8560
539	2540	0.00022189773	8560
539	2585	0.000231554648	8560
539	2630	0.000249514695	8560
539	3033	0.000272906131	8560
539	3389	0.000299845885	8560
539	4654	0.000410719452	8560
539	4699	0.000416140012	8560
539	4955	0.000441588853	8560
539	5071	0.000451295822	8560
539	5132	0.000458323818	8560
539	5346	0.000484365166	8560
539	5757	0.000513660643	8560
539	5802	0.000520061511	8560
539	6389	0.000566348788	8560
539	6434	0.000572861208	8560
539	6564	0.000588634483	8560
539	6625	0.000592681045	8560
539	7752	0.000677071415	8560
539	7797	0.000683438726	8560
539	8013	0.000715113747	8560
539	8058	0.00073258327	8560
539	8414	0.000757978129	8560
539	8588	0.000773404457	8560
539	8889	0.000794414838	8560
539	9005	0.000804784688	8560
539	9345	0.000831272024	8560
539	9390	0.000836245218	8560
539	9449	0.000842311693	8560
539	9680	0.000860568426	8560
539	10046	0.000891967539	8560
539	10187	0.000904251398	8560
539	10232	0.000911880232	8560
539	11210	0.001000380574	8560
539	11397	0.001019887884	8560
539	11556	0.001032624883	8560
539	11587	0.001036437226	8560
539	11790	0.001052059995	8560
539	11819	0.001055538395	8560
539	11993	0.001067513747	8560
539	13376	0.001169571061	8560
539	13563	0.001199745133	8560
539	13608	0.001204642244	8560
539	13724	0.001217700588	8560
539	13769	0.001222331823	8560
539	14456	0.001291280335	8560
539	16013	0.001435595831	8560
539	16058	0.001452624546	8560
539	16927	0.001514932242	8560
539	17409	0.001562510469	8560
539	17456	0.001566357255	8560
539	18329	0.001636365693	8560
539	18786	0.00167893179	8560
539	19324	0.001718529799	8560
539	19369	0.00172578243	8560
539	19428	0.001730771961	8560
539	19686	0.001758513187	8560
539	19843	0.00177015095	8560
539	20465	0.001823418458	8560
539	20510	0.001834793389	8560
539	20938	0.001874999649	8560
539	21014	0.001881207476	8560
539	21311	0.00191030454	8560
539	21456	0.001924298335	8560
539	21501	0.001929767373	8560
539	21546	0.001937738713	8560
539	21961	0.001971915573	8560
539	22077	0.001988029965	8560
539	22393	0.002031398299	8560
539	22438	0.002047451623	8560
539	22483	0.00205896669	8560
539	22954	0.002087618661	8560
539	23252	0.002123034083	8560
539	23480	0.002152004888	8560
539	23525	0.002156651508	8560
539	23684	0.002171773055	8560
539	23887	0.002188920577	8560
539	24002	0.002198784322	8560
539	24147	0.002209504196	8560
539	24192	0.002223867325	8560
539	24478	0.002243194011	8560
539	24523	0.002249017547	8560
539	25392	0.002325670377	8560
539	25708	0.002352480064	8560
539	25824	0.002369334434	8560
539	26296	0.002417293505	8560
539	26767	0.002444177423	8560
539	27338	0.002513735496	8560
539	27552	0.002529312176	8560
539	27613	0.002534502586	8560
539	27642	0.002537980986	8560
539	28059	0.002573874069	8560
539	28106	0.00257779371	8560
539	28453	0.002607348255	8560
539	28505	0.002618325674	8560
539	28807	0.002653267316	8560
539	29049	0.002678010481	8560
539	29336	0.002722933895	8560
539	29493	0.002738150374	8560
539	29538	0.002743028792	8560
539	29883	0.002771832401	8560
540	28453	0.002607348255	328302902.52117
541	9871	0.000881071118	8560
541	19643	0.001753071118	8560
541	28508	0.002625071118	8560
547	9683	0.000871471118	1070
547	19565	0.001743471118	1070
547	28473	0.002615471118	1070
552	9871	0.000881071118	1070
552	19643	0.001753071118	1070
552	28508	0.002625071118	1070
569	9687	0.000871521118	1052
569	19570	0.001743521118	1052
569	28478	0.002615521118	1052
570	9685	0.000871521118	1052
570	19568	0.001743521118	1052
570	28476	0.002615521118	1052
588	9684	0.000871521118	1070
588	19566	0.001743521118	1070
588	28474	0.002615521118	1070
589	9684	0.000871521118	1070
589	19566	0.001743521118	1070
589	28474	0.002615521118	1070
598	9688	0.000871521118	0
598	19571	0.001743521118	0
598	28479	0.002615521118	0
599	9688	0.000871521118	0
599	19571	0.001743521118	0
599	28479	0.002615521118	0
600	9688	0.000871521118	0
600	19571	0.001743521118	0
600	28479	0.002615521118	0
601	9688	0.000871521118	8560
601	19571	0.001743521118	8560
601	28479	0.002615521118	8560
603	9688	0.000871521118	8560
603	19571	0.001743521118	8560
603	28479	0.002615521118	8560
609	19451	0.001733921118	1070
609	28422	0.002605921118	1070
614	9688	0.000871521118	1070
614	19571	0.001743521118	1070
614	28479	0.002615521118	1070
627	19453	0.001733971118	1052
627	28424	0.002605971118	1052
645	19452	0.001733971118	1070
645	28423	0.002605971118	1070
646	19452	0.001733971118	1070
646	28423	0.002605971118	1070
662	19455	0.001733971118	1032
662	28426	0.002605971118	1032
663	19455	0.001733971118	1
663	28426	0.002605971118	2
142	30209	0.002807887841	2
185	30210	0.002807887841	2
228	30211	0.002807887841	2
8	30211	0.002807887841	0
10	30211	0.002807887841	0
46	30211	0.002807887841	0
48	30211	0.002807887841	0
84	30211	0.002807887841	287737988.74825
86	30211	0.002807887841	284740718.03212
115	30211	0.002807887841	0
127	30211	0.002807887841	233787115.85795
129	30211	0.002807887841	233787115.85795
158	30211	0.002807887841	0
170	30211	0.002807887841	227792574.4257
172	30211	0.002807887841	227792574.4257
201	30211	0.002807887841	0
213	30211	0.002807887841	260762552.3031
215	30211	0.002807887841	260762552.3031
244	30211	0.002807887841	0
256	30211	0.002807887841	245776198.72246
258	30211	0.002807887841	245776198.72246
287	30211	0.002807887841	0
299	30211	0.002807887841	245776198.72246
301	30211	0.002807887841	245776198.72246
330	30211	0.002807887841	0
342	30211	0.002807887841	257765281.58697
344	30211	0.002807887841	257765281.58697
373	30211	0.002807887841	0
385	30211	0.002807887841	296729800.89663
387	30211	0.002807887841	296729800.89663
416	30211	0.002807887841	0
428	30211	0.002807887841	242778928.00633
430	30211	0.002807887841	242778928.00633
459	30211	0.002807887841	0
471	30211	0.002807887841	233787115.85795
473	30211	0.002807887841	233787115.85795
502	30211	0.002807887841	0
517	30211	0.002807887841	0
519	30211	0.002807887841	0
540	30211	0.002807887841	298793875.04071
542	30211	0.002807887841	12194219.263333
580	30211	0.002807887841	0
582	30211	0.002807887841	0
602	30211	0.002807887841	9145664.4474996
604	30211	0.002807887841	9145664.4474996
637	30211	0.002807887841	0
639	30211	0.002807887841	0

