version 3
run General-0-20260306-15:05:47-3822
attr configname General
attr datetime 20260306-15:05:47
attr datetimef 20260306-150547
attr experiment General
attr inifile omnetpp.ini
attr iterationvars ""
attr iterationvarsd ""
attr iterationvarsf ""
attr measurement ""
attr network ResourceNetwork
attr processid 3822
attr repetition 0
attr replication #0
attr resultdir results
attr runnumber 0
attr seedset 0
config image-path ../../../default_workspace/inet-4.5.4/images
config description "Simple sim where two nodes communicate wirelessly."
config network ResourceNetwork
config sim-time-limit 60s
config *.*.ipv4.arp.typename GlobalArp
config *.mdAutonomousVehicle[*].numApps 1
config *.mdAutonomousVehicle[*].app[0].typename TrafficGenerator
config *.mdAutonomousVehicle[*].app[0].destAddresses "\"edgeServer\""
config *.mdAutonomousVehicle[*].app[0].destPort 5000
config *.mdAutonomousVehicle[*].app[0].messageLength 1024B
config *.mdAutonomousVehicle[*].app[0].sendInterval exponential(12ms)
config *.mdAutonomousVehicle[*].app[0].packetName "\"TaskData\""
config *.mdAutonomousVehicle[*].app[0].minRequiredCPUCycles 300
config *.mdAutonomousVehicle[*].app[0].maxRequiredCPUCycles 500
config *.mdAutonomousVehicle[*].app[0].minDeadlineLatency 0.5
config *.mdAutonomousVehicle[*].app[0].maxDeadlineLatency 20
config *.edgeServer*.numApps 1
config *.edgeServer*.app[0].typename ResourceAllocatorApp
config *.edgeServer*.app[0].localPort 5000
config *.mdAutonomousVehicle[*].wlan[0].typename AckingWirelessInterface
config *.mdAutonomousVehicle[*].wlan[0].mac.useAck false
config *.mdAutonomousVehicle[*].wlan[0].mac.fullDuplex false
config *.mdAutonomousVehicle[*].wlan[0].mac.headerLength 23B
config *.mdAutonomousVehicle[*].wlan[0].radio.typename ApskRadio
config *.mdAutonomousVehicle[*].wlan[0].radio.centerFrequency 2GHz
config *.mdAutonomousVehicle[*].wlan[0].radio.bandwidth 2MHz
config *.mdAutonomousVehicle[*].wlan[0].radio.receiver.bandwidth 2MHz
config *.mdAutonomousVehicle[*].wlan[0].radio.transmitter.power 1.4mW
config *.mdAutonomousVehicle[*].wlan[0].radio.transmitter.preambleDuration 10us
config *.mdAutonomousVehicle[*].wlan[0].radio.transmitter.headerLength 8B
config *.mdAutonomousVehicle[*].wlan[0].radio.receiver.sensitivity -85dBm
config *.mdAutonomousVehicle[*].wlan[0].radio.receiver.energyDetection -85dBm
config *.mdAutonomousVehicle[*].wlan[0].radio.receiver.snirThreshold 4dB
config *.baseStation.forwarding true
config *.baseStation*.wlan[0].typename AckingWirelessInterface
config *.baseStation*.wlan[0].mac.useAck false
config *.baseStation*.wlan[0].mac.fullDuplex false
config *.baseStation*.wlan[0].mac.headerLength 23B
config *.baseStation*.wlan[0].radio.typename ApskRadio
config *.baseStation*.wlan[0].radio.centerFrequency 2GHz
config *.baseStation*.wlan[0].radio.transmitter.power 1.4mW
config *.baseStation*.wlan[0].radio.transmitter.preambleDuration 10us
config *.baseStation*.wlan[0].radio.transmitter.headerLength 8B
config *.baseStation*.wlan[0].radio.receiver.sensitivity -85dBm
config *.baseStation*.wlan[0].radio.receiver.energyDetection -85dBm
config *.baseStation*.wlan[0].radio.receiver.snirThreshold 4dB
config **.wlan[0].radio.bandwidth 2MHz
config **.wlan[0].radio.receiver.bandwidth 2MHz
config *.baseStation*.wlan[0].bitrate 1Mbps
config *.mdAutonomousVehicle*.wlan[0].bitrate 1Mbps
config *.radioMedium.backgroundNoise.power -90dBm
config *.radioMedium.backgroundNoise.centerFrequency 2GHz
config *.radioMedium.backgroundNoise.bandwidth 2MHz
config *.radioMedium.mediumLimitCache.centerFrequency 2GHz
config *.radioMedium.mediumLimitCache.bandwidth 2MHz
config *.radioMedium.mediumLimitCache.minRelativePower -110dB
config *.radioMedium.**ignorePartialInterference true
config *.radioMedium.macAddressFilter true
config **.radio.displayCommunicationRange true
config *.visualizer.mediumVisualizer.displaySignals true
config *.visualizer.physicalLinkVisualizer.displayLinks true
config *.visualizer.physicalLinkVisualizer.packetFilter "\"TaskData\""
config *.visualizer.mobilityVisualizer.displayVelocities true
config *.visualizer.mobilityVisualizer.displayMovementTrails true
config *.hostA.mobility.typename LinearMobility
config *.hostA.mobility.speed 12mps
config *.hostA.mobility.initialMovementHeading 200deg

vector 0 ResourceNetwork.hostA.lo[0].lo rcvdPkFromHl:vector(packetBytes) ETV
attr interpolationmode none
attr recordingmode vector(packetBytes)
attr source packetReceivedFromUpper
attr title "packets received from higher layer, packetBytes"
vector 1 ResourceNetwork.hostA.lo[0].lo passedUpPk:vector(packetBytes) ETV
attr interpolationmode none
attr recordingmode vector(packetBytes)
attr source packetSentToUpper
attr title "packets passed to higher layer, packetBytes"
vector 2 ResourceNetwork.hostA.lo[0] packetDropInterfaceDown:vector(packetBytes) ETV
attr interpolationmode none
attr recordingmode vector(packetBytes)
attr source packetDropReasonIsInterfaceDown(packetDropped)
attr title "packet drops: interface down, packetBytes"
vector 3 ResourceNetwork.hostA.lo[0] packetDropNoCarrier:vector(packetBytes) ETV
attr interpolationmode none
attr recordingmode vector(packetBytes)
attr source packetDropReasonIsNoCarrier(packetDropped)
attr title "packet drops: no carrier, packetBytes"
vector 4 ResourceNetwork.hostA.wlan[0].agent sentRequest:vector ETV
attr recordingmode vector
attr title "sent requests"
vector 5 ResourceNetwork.hostA.wlan[0].agent acceptConfirm:vector ETV
attr recordingmode vector
attr title "accepted confirms"
vector 6 ResourceNetwork.hostA.wlan[0].agent dropConfirm:vector ETV
attr recordingmode vector
attr title "dropped confirms"
vector 7 ResourceNetwork.hostA.wlan[0].mac.dcf.channelAccess.pendingQueue queueLength:vector ETV
attr autoWarmupFilter false
attr interpolationmode sample-hold
attr recordingmode vector
attr source "warmup(atomic(constant0(packetPushEnded) + count(packetPushStarted) - count(packetPulled) - count(packetRemoved) - count(packetDropped)))"
attr title "queue length"
attr unit pk
vector 8 ResourceNetwork.hostA.wlan[0].mac.dcf.channelAccess.pendingQueue queueBitLength:vector ETV
attr autoWarmupFilter false
attr interpolationmode sample-hold
attr recordingmode vector
attr source "warmup(atomic(constant0(packetPushEnded) + sum(packetLength(packetPushStarted)) - sum(packetLength(packetPulled)) - sum(packetLength(packetRemoved)) - sum(packetLength(packetDropped))))"
attr title "queue bit length"
attr unit b
vector 9 ResourceNetwork.hostA.wlan[0].mac.dcf.channelAccess.pendingQueue queueingTime:vector ETV
attr interpolationmode none
attr recordingmode vector
attr source queueingTime(packetPulled)
attr title "queueing times"
attr unit s
vector 10 ResourceNetwork.hostA.wlan[0].mac.dcf.channelAccess.pendingQueue incomingPacketLengths:vector ETV
attr interpolationmode none
attr recordingmode vector
attr source packetLength(packetPushStarted)
attr title "incoming packet lengths"
attr unit b
vector 11 ResourceNetwork.hostA.wlan[0].mac.dcf.channelAccess.pendingQueue incomingDataRate:vector ETV
attr interpolationmode linear
attr recordingmode vector
attr source throughput(packetPushStarted)
attr title "incoming datarate"
attr unit bps
vector 12 ResourceNetwork.hostA.wlan[0].mac.dcf.channelAccess.pendingQueue outgoingPacketLengths:vector ETV
attr interpolationmode none
attr recordingmode vector
attr source packetLength(packetPulled)
attr title "outgoing packet lengths"
attr unit b
vector 13 ResourceNetwork.hostA.wlan[0].mac.dcf.channelAccess.pendingQueue outgoingDataRate:vector ETV
attr interpolationmode linear
attr recordingmode vector
attr source throughput(packetPulled)
attr title "outgoing datarate"
attr unit bps
vector 14 ResourceNetwork.hostA.wlan[0].mac.dcf.channelAccess.pendingQueue droppedPacketLengthsQueueOverflow:vector ETV
attr interpolationmode none
attr recordingmode vector
attr source packetLength(packetDropReasonIsQueueOverflow(packetDropped))
attr title "dropped packet lengths: queue overflow"
attr unit b
vector 15 ResourceNetwork.hostA.wlan[0].mac.dcf.channelAccess.pendingQueue flowQueueingTime:vector ETV
attr interpolationmode none
attr recordingmode vector
attr source queueingTime(demuxFlow(packetPulled))
attr title "flow queueing times"
attr unit s
vector 16 ResourceNetwork.hostA.wlan[0].mac.dcf.channelAccess.pendingQueue flowIncomingDataRate:vector ETV
attr interpolationmode linear
attr recordingmode vector
attr source throughput(flowPacketLength(demuxFlow(packetPushStarted)))
attr title "flow specific incoming data rate"
attr unit bps
vector 17 ResourceNetwork.hostA.wlan[0].mac.dcf.channelAccess.pendingQueue flowOutgoingDataRate:vector ETV
attr interpolationmode linear
attr recordingmode vector
attr source throughput(flowPacketLength(demuxFlow(packetPulled)))
attr title "flow specific outgoing data rate"
attr unit bps
vector 18 ResourceNetwork.hostA.wlan[0].mac.dcf.channelAccess.inProgressFrames queueingTime:vector ETV
attr interpolationmode none
attr recordingmode vector
attr source queueingTime(packetDequeued)
attr title "queueing times"
vector 19 ResourceNetwork.hostA.wlan[0].mac.dcf.channelAccess.inProgressFrames queueLength:vector ETV
attr autoWarmupFilter false
attr interpolationmode sample-hold
attr recordingmode vector
attr source "warmup(count(packetEnqueued) - count(packetDequeued))"
attr title "queue length"
vector 20 ResourceNetwork.hostA.wlan[0].mac.dcf.channelAccess.contention backoffPeriodGenerated:vector ETV
attr interpolationmode none
attr recordingmode vector
attr title "backoff periods"
vector 21 ResourceNetwork.hostA.wlan[0].mac.dcf.channelAccess.contention backoffActive:vector ETV
attr autoWarmupFilter false
attr interpolationmode sample-hold
attr recordingmode vector
attr source warmup(count(backoffStarted)-count(backoffStopped))
attr title "backoff active"
vector 22 ResourceNetwork.hostA.wlan[0].mac.dcf.channelAccess.contention stateChanged:vector ETV
attr enum IDLE,DEFER,IFS_AND_BACKOFF
attr interpolationmode none
attr recordingmode vector
attr title "contention state changed"
attr type enum
vector 23 ResourceNetwork.hostA.wlan[0].mac.dcf.recipientMacDataService packetDropDuplicateDetected:vector(packetBytes) ETV
attr interpolationmode none
attr recordingmode vector(packetBytes)
attr source packetDropReasonIsDuplicateDetected(packetDropped)
attr title "packet drops: duplicate detected, packetBytes"
vector 24 ResourceNetwork.hostA.wlan[0].mac.dcf.recoveryProcedure contentionWindowChanged:vector ETV
attr interpolationmode sample-hold
attr recordingmode vector
attr title "contention window"
vector 25 ResourceNetwork.hostA.wlan[0].mac.dcf packetSentToPeer:vector(packetBytes) ETV
attr interpolationmode none
attr recordingmode vector(packetBytes)
attr title "packets sent, packetBytes"
vector 26 ResourceNetwork.hostA.wlan[0].mac.dcf packetSentToPeerUnicast:vector(packetBytes) ETV
attr interpolationmode none
attr recordingmode vector(packetBytes)
attr source ieee80211Unicast(packetSentToPeer)
attr title "packets sent: unicast, packetBytes"
vector 27 ResourceNetwork.hostA.wlan[0].mac.dcf packetSentToPeerMulticast:vector(packetBytes) ETV
attr interpolationmode none
attr recordingmode vector(packetBytes)
attr source ieee80211Multicast(packetSentToPeer)
attr title "packets sent: multicast, packetBytes"
vector 28 ResourceNetwork.hostA.wlan[0].mac.dcf packetSentToPeerBroadcast:vector(packetBytes) ETV
attr interpolationmode none
attr recordingmode vector(packetBytes)
attr source ieee80211Broadcast(packetSentToPeer)
attr title "packets sent: broadcast , packetBytes"
vector 29 ResourceNetwork.hostA.wlan[0].mac.dcf packetSentToPeerWithRetry:vector(packetBytes) ETV
attr interpolationmode none
attr recordingmode vector(packetBytes)
attr source ieee80211Retry(packetSentToPeer)
attr title "packets sent: with retry, packetBytes"
vector 30 ResourceNetwork.hostA.wlan[0].mac.dcf packetSentToPeerWithoutRetry:vector(packetBytes) ETV
attr interpolationmode none
attr recordingmode vector(packetBytes)
attr source ieee80211NotRetry(packetSentToPeer)
attr title "packets sent: without retry, packetBytes"
vector 31 ResourceNetwork.hostA.wlan[0].mac.dcf packetReceivedFromPeer:vector(packetBytes) ETV
attr interpolationmode none
attr recordingmode vector(packetBytes)
attr title "packets received, packetBytes"
vector 32 ResourceNetwork.hostA.wlan[0].mac.dcf packetReceivedFromPeerUnicast:vector(packetBytes) ETV
attr interpolationmode none
attr recordingmode vector(packetBytes)
attr source ieee80211Unicast(packetReceivedFromPeer)
attr title "packets received: unicast, packetBytes"
vector 33 ResourceNetwork.hostA.wlan[0].mac.dcf packetReceivedFromPeerMulticast:vector(packetBytes) ETV
attr interpolationmode none
attr recordingmode vector(packetBytes)
attr source ieee80211Multicast(packetReceivedFromPeer)
attr title "packets received: multicast, packetBytes"
vector 34 ResourceNetwork.hostA.wlan[0].mac.dcf packetReceivedFromPeerBroadcast:vector(packetBytes) ETV
attr interpolationmode none
attr recordingmode vector(packetBytes)
attr source ieee80211Broadcast(packetReceivedFromPeer)
attr title "packets received: broadcast, packetBytes"
vector 35 ResourceNetwork.hostA.wlan[0].mac.dcf packetReceivedFromPeerWithRetry:vector(packetBytes) ETV
attr interpolationmode none
attr recordingmode vector(packetBytes)
attr source ieee80211Retry(packetReceivedFromPeer)
attr title "packets received: with retry, packetBytes"
vector 36 ResourceNetwork.hostA.wlan[0].mac.dcf packetReceivedFromPeerWithoutRetry:vector(packetBytes) ETV
attr interpolationmode none
attr recordingmode vector(packetBytes)
attr source ieee80211NotRetry(packetReceivedFromPeer)
attr title "packets received: without retry, packetBytes"
vector 37 ResourceNetwork.hostA.wlan[0].mac.dcf packetDrop:vector(packetBytes) ETV
attr interpolationmode none
attr recordingmode vector(packetBytes)
attr source packetDropped
attr title "packet drops, packetBytes"
vector 38 ResourceNetwork.hostA.wlan[0].mac.dcf packetDropNotAddressedToUs:vector(packetBytes) ETV
attr interpolationmode none
attr recordingmode vector(packetBytes)
attr source packetDropReasonIsNotAddressedToUs(packetDropped)
attr title "packet drops: not addressed to us, packetBytes"
vector 39 ResourceNetwork.hostA.wlan[0].mac.dcf packetDropQueueOverflow:vector(packetBytes) ETV
attr interpolationmode none
attr recordingmode vector(packetBytes)
attr source packetDropReasonIsQueueOverflow(packetDropped)
attr title "packet drops: queue overflow, packetBytes"
vector 40 ResourceNetwork.hostA.wlan[0].mac.dcf packetDropRetryLimitReached:vector(packetBytes) ETV
attr interpolationmode none
attr recordingmode vector(packetBytes)
attr source packetDropReasonIsRetryLimitReached(packetDropped)
attr title "packet drops: retry limit reached, packetBytes"
vector 41 ResourceNetwork.hostA.wlan[0].mac.dcf frameSequenceActive:vector ETV
attr autoWarmupFilter false
attr interpolationmode sample-hold
attr recordingmode vector
attr source warmup(count(frameSequenceStarted)-count(frameSequenceFinished))
attr title "frame sequence active"
vector 42 ResourceNetwork.hostA.wlan[0].mac.dcf datarateSelected:vector ETV
attr interpolationmode none
attr recordingmode vector
attr title "datarates selected"
vector 43 ResourceNetwork.hostA.wlan[0].mac.rx nav:vector ETV
attr interpolationmode linear
attr recordingmode vector
attr source navChanged
attr title "network allocation vector"
vector 44 ResourceNetwork.hostA.wlan[0].mac packetSentToUpper:vector(packetBytes) ETV
attr interpolationmode none
attr recordingmode vector(packetBytes)
attr title "packets sent to upper layer, packetBytes"
vector 45 ResourceNetwork.hostA.wlan[0].mac packetSentToLower:vector(packetBytes) ETV
attr interpolationmode none
attr recordingmode vector(packetBytes)
attr title "packets sent to lower layer, packetBytes"
vector 46 ResourceNetwork.hostA.wlan[0].mac packetReceivedFromUpper:vector(packetBytes) ETV
attr interpolationmode none
attr recordingmode vector(packetBytes)
attr title "packets received from upper layer, packetBytes"
vector 47 ResourceNetwork.hostA.wlan[0].mac packetReceivedFromLower:vector(packetBytes) ETV
attr interpolationmode none
attr recordingmode vector(packetBytes)
attr title "packets received from lower layer, packetBytes"
vector 48 ResourceNetwork.hostA.wlan[0].mac packetDrop:vector(packetBytes) ETV
attr interpolationmode none
attr recordingmode vector(packetBytes)
attr source packetDropped
attr title "packet drops, packetBytes"
vector 49 ResourceNetwork.hostA.wlan[0].mac packetDropIncorrectlyReceived:vector(packetBytes) ETV
attr interpolationmode none
attr recordingmode vector(packetBytes)
attr source packetDropReasonIsIncorrectlyReceived(packetDropped)
attr title "packet drops: incorrectly received, packetBytes"
vector 50 ResourceNetwork.hostA.wlan[0].mac packetDropNotAddressedToUs:vector(packetBytes) ETV
attr interpolationmode none
attr recordingmode vector(packetBytes)
attr source packetDropReasonIsNotAddressedToUs(packetDropped)
attr title "packet drops: not addressed to us, packetBytes"
vector 51 ResourceNetwork.hostA.wlan[0].mac packetDropQueueOverflow:vector(packetBytes) ETV
attr interpolationmode none
attr recordingmode vector(packetBytes)
attr source packetDropReasonIsQueueOverflow(packetDropped)
attr title "packet drops: queue overflow, packetBytes"
vector 52 ResourceNetwork.hostA.wlan[0].mac packetDropRetryLimitReached:vector(packetBytes) ETV
attr interpolationmode none
attr recordingmode vector(packetBytes)
attr source packetDropReasonIsRetryLimitReached(packetDropped)
attr title "packet drops: retry limit reached, packetBytes"
vector 53 ResourceNetwork.hostA.wlan[0].mac packetDropDuplicateDetected:vector(packetBytes) ETV
attr interpolationmode none
attr recordingmode vector(packetBytes)
attr source packetDropReasonIsDuplicateDetected(packetDropped)
attr title "packet drops: duplicate detected, packetBytes"
vector 54 ResourceNetwork.hostA.wlan[0].mac packetDropOther:vector(packetBytes) ETV
attr interpolationmode none
attr recordingmode vector(packetBytes)
attr source packetDropReasonIsOther(packetDropped)
attr title "packet drops: other, packetBytes"
vector 55 ResourceNetwork.hostA.wlan[0].radio radioMode:vector ETV
attr interpolationmode sample-hold
attr recordingmode vector
attr source radioModeChanged
attr title "Radio mode"
vector 56 ResourceNetwork.hostA.wlan[0].radio receptionState:vector ETV
attr interpolationmode sample-hold
attr recordingmode vector
attr source receptionStateChanged
attr title "Radio reception state"
vector 57 ResourceNetwork.hostA.wlan[0].radio transmissionState:vector ETV
attr interpolationmode sample-hold
attr recordingmode vector
attr source transmissionStateChanged
attr title "Radio transmission state"
vector 58 ResourceNetwork.hostA.wlan[0].radio radioChannel:vector ETV
attr interpolationmode sample-hold
attr recordingmode vector
attr source radioChannelChanged
attr title "Radio channel"
vector 59 ResourceNetwork.hostA.wlan[0] packetDropInterfaceDown:vector(packetBytes) ETV
attr interpolationmode none
attr recordingmode vector(packetBytes)
attr source packetDropReasonIsInterfaceDown(packetDropped)
attr title "packet drops: interface down, packetBytes"
vector 60 ResourceNetwork.hostA.wlan[0] packetDropNoCarrier:vector(packetBytes) ETV
attr interpolationmode none
attr recordingmode vector(packetBytes)
attr source packetDropReasonIsNoCarrier(packetDropped)
attr title "packet drops: no carrier, packetBytes"
vector 61 ResourceNetwork.hostA.ipv4.ip packetDropAddressResolutionFailed:vector(packetBytes) ETV
attr interpolationmode none
attr recordingmode vector(packetBytes)
attr source packetDropReasonIsAddressResolutionFailed(packetDropped)
attr title "packet drop: address resolution failed, packetBytes"
vector 62 ResourceNetwork.hostA.ipv4.ip packetDropHopLimitReached:vector(packetBytes) ETV
attr interpolationmode none
attr recordingmode vector(packetBytes)
attr source packetDropReasonIsHopLimitReached(packetDropped)
attr title "packet drop: hop limit reached, packetBytes"
vector 63 ResourceNetwork.hostA.ipv4.ip packetDropForwardingDisabled:vector(packetBytes) ETV
attr interpolationmode none
attr recordingmode vector(packetBytes)
attr source packetDropReasonIsForwardingDisabled(packetDropped)
attr title "packet drop: forwarding disabled, packetBytes"
vector 64 ResourceNetwork.hostA.ipv4.ip packetDropNoInterfaceFound:vector(packetBytes) ETV
attr interpolationmode none
attr recordingmode vector(packetBytes)
attr source packetDropReasonIsNoInterfaceFound(packetDropped)
attr title "packet drop: no interface found, packetBytes"
vector 65 ResourceNetwork.hostA.ipv4.ip packetDropNoRouteFound:vector(packetBytes) ETV
attr interpolationmode none
attr recordingmode vector(packetBytes)
attr source packetDropReasonIsNoRouteFound(packetDropped)
attr title "packet drop: no route found, packetBytes"
vector 66 ResourceNetwork.hostA.ipv4.ip packetDropUndefined:vector(packetBytes) ETV
attr interpolationmode none
attr recordingmode vector(packetBytes)
attr source packetDropReasonIsUndefined(packetDropped)
attr title "packet drop: undefined, packetBytes"
vector 67 ResourceNetwork.hostA.udp packetSent:vector(packetBytes) ETV
attr interpolationmode none
attr recordingmode vector(packetBytes)
attr source packetSent
attr title "packets sent, packetBytes"
vector 68 ResourceNetwork.hostA.udp packetReceived:vector(packetBytes) ETV
attr interpolationmode none
attr recordingmode vector(packetBytes)
attr source packetReceived
attr title "packets received, packetBytes"
vector 69 ResourceNetwork.hostA.udp passedUpPk:vector(count) ETV
attr interpolationmode none
attr recordingmode vector(count)
attr source packetSentToUpper
attr title "packets passed up, count"
vector 70 ResourceNetwork.hostA.udp droppedPkWrongPort:vector(count) ETV
attr interpolationmode none
attr recordingmode vector(count)
attr source packetDropReasonIsNoPortFound(packetDropped)
attr title "packets dropped (wrong port), count"
vector 71 ResourceNetwork.hostA.udp droppedPkBadChecksum:vector(count) ETV
attr interpolationmode none
attr recordingmode vector(count)
attr source packetDropReasonIsIncorrectlyReceived(packetDropped)
attr title "packets dropped (checksum error), count"
vector 72 ResourceNetwork.mdMobilePhone.lo[0].lo rcvdPkFromHl:vector(packetBytes) ETV
attr interpolationmode none
attr recordingmode vector(packetBytes)
attr source packetReceivedFromUpper
attr title "packets received from higher layer, packetBytes"
vector 73 ResourceNetwork.mdMobilePhone.lo[0].lo passedUpPk:vector(packetBytes) ETV
attr interpolationmode none
attr recordingmode vector(packetBytes)
attr source packetSentToUpper
attr title "packets passed to higher layer, packetBytes"
vector 74 ResourceNetwork.mdMobilePhone.lo[0] packetDropInterfaceDown:vector(packetBytes) ETV
attr interpolationmode none
attr recordingmode vector(packetBytes)
attr source packetDropReasonIsInterfaceDown(packetDropped)
attr title "packet drops: interface down, packetBytes"
vector 75 ResourceNetwork.mdMobilePhone.lo[0] packetDropNoCarrier:vector(packetBytes) ETV
attr interpolationmode none
attr recordingmode vector(packetBytes)
attr source packetDropReasonIsNoCarrier(packetDropped)
attr title "packet drops: no carrier, packetBytes"
vector 76 ResourceNetwork.mdMobilePhone.wlan[0].agent sentRequest:vector ETV
attr recordingmode vector
attr title "sent requests"
vector 77 ResourceNetwork.mdMobilePhone.wlan[0].agent acceptConfirm:vector ETV
attr recordingmode vector
attr title "accepted confirms"
vector 78 ResourceNetwork.mdMobilePhone.wlan[0].agent dropConfirm:vector ETV
attr recordingmode vector
attr title "dropped confirms"
vector 79 ResourceNetwork.mdMobilePhone.wlan[0].mac.dcf.channelAccess.pendingQueue queueLength:vector ETV
attr autoWarmupFilter false
attr interpolationmode sample-hold
attr recordingmode vector
attr source "warmup(atomic(constant0(packetPushEnded) + count(packetPushStarted) - count(packetPulled) - count(packetRemoved) - count(packetDropped)))"
attr title "queue length"
attr unit pk
vector 80 ResourceNetwork.mdMobilePhone.wlan[0].mac.dcf.channelAccess.pendingQueue queueBitLength:vector ETV
attr autoWarmupFilter false
attr interpolationmode sample-hold
attr recordingmode vector
attr source "warmup(atomic(constant0(packetPushEnded) + sum(packetLength(packetPushStarted)) - sum(packetLength(packetPulled)) - sum(packetLength(packetRemoved)) - sum(packetLength(packetDropped))))"
attr title "queue bit length"
attr unit b
vector 81 ResourceNetwork.mdMobilePhone.wlan[0].mac.dcf.channelAccess.pendingQueue queueingTime:vector ETV
attr interpolationmode none
attr recordingmode vector
attr source queueingTime(packetPulled)
attr title "queueing times"
attr unit s
vector 82 ResourceNetwork.mdMobilePhone.wlan[0].mac.dcf.channelAccess.pendingQueue incomingPacketLengths:vector ETV
attr interpolationmode none
attr recordingmode vector
attr source packetLength(packetPushStarted)
attr title "incoming packet lengths"
attr unit b
vector 83 ResourceNetwork.mdMobilePhone.wlan[0].mac.dcf.channelAccess.pendingQueue incomingDataRate:vector ETV
attr interpolationmode linear
attr recordingmode vector
attr source throughput(packetPushStarted)
attr title "incoming datarate"
attr unit bps
vector 84 ResourceNetwork.mdMobilePhone.wlan[0].mac.dcf.channelAccess.pendingQueue outgoingPacketLengths:vector ETV
attr interpolationmode none
attr recordingmode vector
attr source packetLength(packetPulled)
attr title "outgoing packet lengths"
attr unit b
vector 85 ResourceNetwork.mdMobilePhone.wlan[0].mac.dcf.channelAccess.pendingQueue outgoingDataRate:vector ETV
attr interpolationmode linear
attr recordingmode vector
attr source throughput(packetPulled)
attr title "outgoing datarate"
attr unit bps
vector 86 ResourceNetwork.mdMobilePhone.wlan[0].mac.dcf.channelAccess.pendingQueue droppedPacketLengthsQueueOverflow:vector ETV
attr interpolationmode none
attr recordingmode vector
attr source packetLength(packetDropReasonIsQueueOverflow(packetDropped))
attr title "dropped packet lengths: queue overflow"
attr unit b
vector 87 ResourceNetwork.mdMobilePhone.wlan[0].mac.dcf.channelAccess.pendingQueue flowQueueingTime:vector ETV
attr interpolationmode none
attr recordingmode vector
attr source queueingTime(demuxFlow(packetPulled))
attr title "flow queueing times"
attr unit s
vector 88 ResourceNetwork.mdMobilePhone.wlan[0].mac.dcf.channelAccess.pendingQueue flowIncomingDataRate:vector ETV
attr interpolationmode linear
attr recordingmode vector
attr source throughput(flowPacketLength(demuxFlow(packetPushStarted)))
attr title "flow specific incoming data rate"
attr unit bps
vector 89 ResourceNetwork.mdMobilePhone.wlan[0].mac.dcf.channelAccess.pendingQueue flowOutgoingDataRate:vector ETV
attr interpolationmode linear
attr recordingmode vector
attr source throughput(flowPacketLength(demuxFlow(packetPulled)))
attr title "flow specific outgoing data rate"
attr unit bps
vector 90 ResourceNetwork.mdMobilePhone.wlan[0].mac.dcf.channelAccess.inProgressFrames queueingTime:vector ETV
attr interpolationmode none
attr recordingmode vector
attr source queueingTime(packetDequeued)
attr title "queueing times"
vector 91 ResourceNetwork.mdMobilePhone.wlan[0].mac.dcf.channelAccess.inProgressFrames queueLength:vector ETV
attr autoWarmupFilter false
attr interpolationmode sample-hold
attr recordingmode vector
attr source "warmup(count(packetEnqueued) - count(packetDequeued))"
attr title "queue length"
vector 92 ResourceNetwork.mdMobilePhone.wlan[0].mac.dcf.channelAccess.contention backoffPeriodGenerated:vector ETV
attr interpolationmode none
attr recordingmode vector
attr title "backoff periods"
vector 93 ResourceNetwork.mdMobilePhone.wlan[0].mac.dcf.channelAccess.contention backoffActive:vector ETV
attr autoWarmupFilter false
attr interpolationmode sample-hold
attr recordingmode vector
attr source warmup(count(backoffStarted)-count(backoffStopped))
attr title "backoff active"
vector 94 ResourceNetwork.mdMobilePhone.wlan[0].mac.dcf.channelAccess.contention stateChanged:vector ETV
attr enum IDLE,DEFER,IFS_AND_BACKOFF
attr interpolationmode none
attr recordingmode vector
attr title "contention state changed"
attr type enum
vector 95 ResourceNetwork.mdMobilePhone.wlan[0].mac.dcf.recipientMacDataService packetDropDuplicateDetected:vector(packetBytes) ETV
attr interpolationmode none
attr recordingmode vector(packetBytes)
attr source packetDropReasonIsDuplicateDetected(packetDropped)
attr title "packet drops: duplicate detected, packetBytes"
vector 96 ResourceNetwork.mdMobilePhone.wlan[0].mac.dcf.recoveryProcedure contentionWindowChanged:vector ETV
attr interpolationmode sample-hold
attr recordingmode vector
attr title "contention window"
vector 97 ResourceNetwork.mdMobilePhone.wlan[0].mac.dcf packetSentToPeer:vector(packetBytes) ETV
attr interpolationmode none
attr recordingmode vector(packetBytes)
attr title "packets sent, packetBytes"
vector 98 ResourceNetwork.mdMobilePhone.wlan[0].mac.dcf packetSentToPeerUnicast:vector(packetBytes) ETV
attr interpolationmode none
attr recordingmode vector(packetBytes)
attr source ieee80211Unicast(packetSentToPeer)
attr title "packets sent: unicast, packetBytes"
vector 99 ResourceNetwork.mdMobilePhone.wlan[0].mac.dcf packetSentToPeerMulticast:vector(packetBytes) ETV
attr interpolationmode none
attr recordingmode vector(packetBytes)
attr source ieee80211Multicast(packetSentToPeer)
attr title "packets sent: multicast, packetBytes"
vector 100 ResourceNetwork.mdMobilePhone.wlan[0].mac.dcf packetSentToPeerBroadcast:vector(packetBytes) ETV
attr interpolationmode none
attr recordingmode vector(packetBytes)
attr source ieee80211Broadcast(packetSentToPeer)
attr title "packets sent: broadcast , packetBytes"
vector 101 ResourceNetwork.mdMobilePhone.wlan[0].mac.dcf packetSentToPeerWithRetry:vector(packetBytes) ETV
attr interpolationmode none
attr recordingmode vector(packetBytes)
attr source ieee80211Retry(packetSentToPeer)
attr title "packets sent: with retry, packetBytes"
vector 102 ResourceNetwork.mdMobilePhone.wlan[0].mac.dcf packetSentToPeerWithoutRetry:vector(packetBytes) ETV
attr interpolationmode none
attr recordingmode vector(packetBytes)
attr source ieee80211NotRetry(packetSentToPeer)
attr title "packets sent: without retry, packetBytes"
vector 103 ResourceNetwork.mdMobilePhone.wlan[0].mac.dcf packetReceivedFromPeer:vector(packetBytes) ETV
attr interpolationmode none
attr recordingmode vector(packetBytes)
attr title "packets received, packetBytes"
vector 104 ResourceNetwork.mdMobilePhone.wlan[0].mac.dcf packetReceivedFromPeerUnicast:vector(packetBytes) ETV
attr interpolationmode none
attr recordingmode vector(packetBytes)
attr source ieee80211Unicast(packetReceivedFromPeer)
attr title "packets received: unicast, packetBytes"
vector 105 ResourceNetwork.mdMobilePhone.wlan[0].mac.dcf packetReceivedFromPeerMulticast:vector(packetBytes) ETV
attr interpolationmode none
attr recordingmode vector(packetBytes)
attr source ieee80211Multicast(packetReceivedFromPeer)
attr title "packets received: multicast, packetBytes"
vector 106 ResourceNetwork.mdMobilePhone.wlan[0].mac.dcf packetReceivedFromPeerBroadcast:vector(packetBytes) ETV
attr interpolationmode none
attr recordingmode vector(packetBytes)
attr source ieee80211Broadcast(packetReceivedFromPeer)
attr title "packets received: broadcast, packetBytes"
vector 107 ResourceNetwork.mdMobilePhone.wlan[0].mac.dcf packetReceivedFromPeerWithRetry:vector(packetBytes) ETV
attr interpolationmode none
attr recordingmode vector(packetBytes)
attr source ieee80211Retry(packetReceivedFromPeer)
attr title "packets received: with retry, packetBytes"
vector 108 ResourceNetwork.mdMobilePhone.wlan[0].mac.dcf packetReceivedFromPeerWithoutRetry:vector(packetBytes) ETV
attr interpolationmode none
attr recordingmode vector(packetBytes)
attr source ieee80211NotRetry(packetReceivedFromPeer)
attr title "packets received: without retry, packetBytes"
vector 109 ResourceNetwork.mdMobilePhone.wlan[0].mac.dcf packetDrop:vector(packetBytes) ETV
attr interpolationmode none
attr recordingmode vector(packetBytes)
attr source packetDropped
attr title "packet drops, packetBytes"
vector 110 ResourceNetwork.mdMobilePhone.wlan[0].mac.dcf packetDropNotAddressedToUs:vector(packetBytes) ETV
attr interpolationmode none
attr recordingmode vector(packetBytes)
attr source packetDropReasonIsNotAddressedToUs(packetDropped)
attr title "packet drops: not addressed to us, packetBytes"
vector 111 ResourceNetwork.mdMobilePhone.wlan[0].mac.dcf packetDropQueueOverflow:vector(packetBytes) ETV
attr interpolationmode none
attr recordingmode vector(packetBytes)
attr source packetDropReasonIsQueueOverflow(packetDropped)
attr title "packet drops: queue overflow, packetBytes"
vector 112 ResourceNetwork.mdMobilePhone.wlan[0].mac.dcf packetDropRetryLimitReached:vector(packetBytes) ETV
attr interpolationmode none
attr recordingmode vector(packetBytes)
attr source packetDropReasonIsRetryLimitReached(packetDropped)
attr title "packet drops: retry limit reached, packetBytes"
vector 113 ResourceNetwork.mdMobilePhone.wlan[0].mac.dcf frameSequenceActive:vector ETV
attr autoWarmupFilter false
attr interpolationmode sample-hold
attr recordingmode vector
attr source warmup(count(frameSequenceStarted)-count(frameSequenceFinished))
attr title "frame sequence active"
vector 114 ResourceNetwork.mdMobilePhone.wlan[0].mac.dcf datarateSelected:vector ETV
attr interpolationmode none
attr recordingmode vector
attr title "datarates selected"
vector 115 ResourceNetwork.mdMobilePhone.wlan[0].mac.rx nav:vector ETV
attr interpolationmode linear
attr recordingmode vector
attr source navChanged
attr title "network allocation vector"
vector 116 ResourceNetwork.mdMobilePhone.wlan[0].mac packetSentToUpper:vector(packetBytes) ETV
attr interpolationmode none
attr recordingmode vector(packetBytes)
attr title "packets sent to upper layer, packetBytes"
vector 117 ResourceNetwork.mdMobilePhone.wlan[0].mac packetSentToLower:vector(packetBytes) ETV
attr interpolationmode none
attr recordingmode vector(packetBytes)
attr title "packets sent to lower layer, packetBytes"
vector 118 ResourceNetwork.mdMobilePhone.wlan[0].mac packetReceivedFromUpper:vector(packetBytes) ETV
attr interpolationmode none
attr recordingmode vector(packetBytes)
attr title "packets received from upper layer, packetBytes"
vector 119 ResourceNetwork.mdMobilePhone.wlan[0].mac packetReceivedFromLower:vector(packetBytes) ETV
attr interpolationmode none
attr recordingmode vector(packetBytes)
attr title "packets received from lower layer, packetBytes"
vector 120 ResourceNetwork.mdMobilePhone.wlan[0].mac packetDrop:vector(packetBytes) ETV
attr interpolationmode none
attr recordingmode vector(packetBytes)
attr source packetDropped
attr title "packet drops, packetBytes"
vector 121 ResourceNetwork.mdMobilePhone.wlan[0].mac packetDropIncorrectlyReceived:vector(packetBytes) ETV
attr interpolationmode none
attr recordingmode vector(packetBytes)
attr source packetDropReasonIsIncorrectlyReceived(packetDropped)
attr title "packet drops: incorrectly received, packetBytes"
vector 122 ResourceNetwork.mdMobilePhone.wlan[0].mac packetDropNotAddressedToUs:vector(packetBytes) ETV
attr interpolationmode none
attr recordingmode vector(packetBytes)
attr source packetDropReasonIsNotAddressedToUs(packetDropped)
attr title "packet drops: not addressed to us, packetBytes"
vector 123 ResourceNetwork.mdMobilePhone.wlan[0].mac packetDropQueueOverflow:vector(packetBytes) ETV
attr interpolationmode none
attr recordingmode vector(packetBytes)
attr source packetDropReasonIsQueueOverflow(packetDropped)
attr title "packet drops: queue overflow, packetBytes"
vector 124 ResourceNetwork.mdMobilePhone.wlan[0].mac packetDropRetryLimitReached:vector(packetBytes) ETV
attr interpolationmode none
attr recordingmode vector(packetBytes)
attr source packetDropReasonIsRetryLimitReached(packetDropped)
attr title "packet drops: retry limit reached, packetBytes"
vector 125 ResourceNetwork.mdMobilePhone.wlan[0].mac packetDropDuplicateDetected:vector(packetBytes) ETV
attr interpolationmode none
attr recordingmode vector(packetBytes)
attr source packetDropReasonIsDuplicateDetected(packetDropped)
attr title "packet drops: duplicate detected, packetBytes"
vector 126 ResourceNetwork.mdMobilePhone.wlan[0].mac packetDropOther:vector(packetBytes) ETV
attr interpolationmode none
attr recordingmode vector(packetBytes)
attr source packetDropReasonIsOther(packetDropped)
attr title "packet drops: other, packetBytes"
vector 127 ResourceNetwork.mdMobilePhone.wlan[0].radio radioMode:vector ETV
attr interpolationmode sample-hold
attr recordingmode vector
attr source radioModeChanged
attr title "Radio mode"
vector 128 ResourceNetwork.mdMobilePhone.wlan[0].radio receptionState:vector ETV
attr interpolationmode sample-hold
attr recordingmode vector
attr source receptionStateChanged
attr title "Radio reception state"
vector 129 ResourceNetwork.mdMobilePhone.wlan[0].radio transmissionState:vector ETV
attr interpolationmode sample-hold
attr recordingmode vector
attr source transmissionStateChanged
attr title "Radio transmission state"
vector 130 ResourceNetwork.mdMobilePhone.wlan[0].radio radioChannel:vector ETV
attr interpolationmode sample-hold
attr recordingmode vector
attr source radioChannelChanged
attr title "Radio channel"
vector 131 ResourceNetwork.mdMobilePhone.wlan[0] packetDropInterfaceDown:vector(packetBytes) ETV
attr interpolationmode none
attr recordingmode vector(packetBytes)
attr source packetDropReasonIsInterfaceDown(packetDropped)
attr title "packet drops: interface down, packetBytes"
vector 132 ResourceNetwork.mdMobilePhone.wlan[0] packetDropNoCarrier:vector(packetBytes) ETV
attr interpolationmode none
attr recordingmode vector(packetBytes)
attr source packetDropReasonIsNoCarrier(packetDropped)
attr title "packet drops: no carrier, packetBytes"
vector 133 ResourceNetwork.mdMobilePhone.ipv4.ip packetDropAddressResolutionFailed:vector(packetBytes) ETV
attr interpolationmode none
attr recordingmode vector(packetBytes)
attr source packetDropReasonIsAddressResolutionFailed(packetDropped)
attr title "packet drop: address resolution failed, packetBytes"
vector 134 ResourceNetwork.mdMobilePhone.ipv4.ip packetDropHopLimitReached:vector(packetBytes) ETV
attr interpolationmode none
attr recordingmode vector(packetBytes)
attr source packetDropReasonIsHopLimitReached(packetDropped)
attr title "packet drop: hop limit reached, packetBytes"
vector 135 ResourceNetwork.mdMobilePhone.ipv4.ip packetDropForwardingDisabled:vector(packetBytes) ETV
attr interpolationmode none
attr recordingmode vector(packetBytes)
attr source packetDropReasonIsForwardingDisabled(packetDropped)
attr title "packet drop: forwarding disabled, packetBytes"
vector 136 ResourceNetwork.mdMobilePhone.ipv4.ip packetDropNoInterfaceFound:vector(packetBytes) ETV
attr interpolationmode none
attr recordingmode vector(packetBytes)
attr source packetDropReasonIsNoInterfaceFound(packetDropped)
attr title "packet drop: no interface found, packetBytes"
vector 137 ResourceNetwork.mdMobilePhone.ipv4.ip packetDropNoRouteFound:vector(packetBytes) ETV
attr interpolationmode none
attr recordingmode vector(packetBytes)
attr source packetDropReasonIsNoRouteFound(packetDropped)
attr title "packet drop: no route found, packetBytes"
vector 138 ResourceNetwork.mdMobilePhone.ipv4.ip packetDropUndefined:vector(packetBytes) ETV
attr interpolationmode none
attr recordingmode vector(packetBytes)
attr source packetDropReasonIsUndefined(packetDropped)
attr title "packet drop: undefined, packetBytes"
vector 139 ResourceNetwork.mdMobilePhone.udp packetSent:vector(packetBytes) ETV
attr interpolationmode none
attr recordingmode vector(packetBytes)
attr source packetSent
attr title "packets sent, packetBytes"
vector 140 ResourceNetwork.mdMobilePhone.udp packetReceived:vector(packetBytes) ETV
attr interpolationmode none
attr recordingmode vector(packetBytes)
attr source packetReceived
attr title "packets received, packetBytes"
vector 141 ResourceNetwork.mdMobilePhone.udp passedUpPk:vector(count) ETV
attr interpolationmode none
attr recordingmode vector(count)
attr source packetSentToUpper
attr title "packets passed up, count"
vector 142 ResourceNetwork.mdMobilePhone.udp droppedPkWrongPort:vector(count) ETV
attr interpolationmode none
attr recordingmode vector(count)
attr source packetDropReasonIsNoPortFound(packetDropped)
attr title "packets dropped (wrong port), count"
vector 143 ResourceNetwork.mdMobilePhone.udp droppedPkBadChecksum:vector(count) ETV
attr interpolationmode none
attr recordingmode vector(count)
attr source packetDropReasonIsIncorrectlyReceived(packetDropped)
attr title "packets dropped (checksum error), count"
vector 144 ResourceNetwork.mdAutonomousVehicle[0].lo[0].lo rcvdPkFromHl:vector(packetBytes) ETV
attr interpolationmode none
attr recordingmode vector(packetBytes)
attr source packetReceivedFromUpper
attr title "packets received from higher layer, packetBytes"
vector 145 ResourceNetwork.mdAutonomousVehicle[0].lo[0].lo passedUpPk:vector(packetBytes) ETV
attr interpolationmode none
attr recordingmode vector(packetBytes)
attr source packetSentToUpper
attr title "packets passed to higher layer, packetBytes"
vector 146 ResourceNetwork.mdAutonomousVehicle[0].lo[0] packetDropInterfaceDown:vector(packetBytes) ETV
attr interpolationmode none
attr recordingmode vector(packetBytes)
attr source packetDropReasonIsInterfaceDown(packetDropped)
attr title "packet drops: interface down, packetBytes"
vector 147 ResourceNetwork.mdAutonomousVehicle[0].lo[0] packetDropNoCarrier:vector(packetBytes) ETV
attr interpolationmode none
attr recordingmode vector(packetBytes)
attr source packetDropReasonIsNoCarrier(packetDropped)
attr title "packet drops: no carrier, packetBytes"
vector 148 ResourceNetwork.mdAutonomousVehicle[0].wlan[0].queue queueLength:vector ETV
attr autoWarmupFilter false
attr interpolationmode sample-hold
attr recordingmode vector
attr source "warmup(atomic(constant0(packetPushEnded) + count(packetPushStarted) - count(packetPulled) - count(packetRemoved) - count(packetDropped)))"
attr title "queue length"
attr unit pk
vector 149 ResourceNetwork.mdAutonomousVehicle[0].wlan[0].queue queueBitLength:vector ETV
attr autoWarmupFilter false
attr interpolationmode sample-hold
attr recordingmode vector
attr source "warmup(atomic(constant0(packetPushEnded) + sum(packetLength(packetPushStarted)) - sum(packetLength(packetPulled)) - sum(packetLength(packetRemoved)) - sum(packetLength(packetDropped))))"
attr title "queue bit length"
attr unit b
vector 150 ResourceNetwork.mdAutonomousVehicle[0].wlan[0].queue queueingTime:vector ETV
attr interpolationmode none
attr recordingmode vector
attr source queueingTime(packetPulled)
attr title "queueing times"
attr unit s
vector 151 ResourceNetwork.mdAutonomousVehicle[0].wlan[0].queue incomingPacketLengths:vector ETV
attr interpolationmode none
attr recordingmode vector
attr source packetLength(packetPushStarted)
attr title "incoming packet lengths"
attr unit b
vector 152 ResourceNetwork.mdAutonomousVehicle[0].wlan[0].queue incomingDataRate:vector ETV
attr interpolationmode linear
attr recordingmode vector
attr source throughput(packetPushStarted)
attr title "incoming datarate"
attr unit bps
vector 153 ResourceNetwork.mdAutonomousVehicle[0].wlan[0].queue outgoingPacketLengths:vector ETV
attr interpolationmode none
attr recordingmode vector
attr source packetLength(packetPulled)
attr title "outgoing packet lengths"
attr unit b
vector 154 ResourceNetwork.mdAutonomousVehicle[0].wlan[0].queue outgoingDataRate:vector ETV
attr interpolationmode linear
attr recordingmode vector
attr source throughput(packetPulled)
attr title "outgoing datarate"
attr unit bps
vector 155 ResourceNetwork.mdAutonomousVehicle[0].wlan[0].queue droppedPacketLengthsQueueOverflow:vector ETV
attr interpolationmode none
attr recordingmode vector
attr source packetLength(packetDropReasonIsQueueOverflow(packetDropped))
attr title "dropped packet lengths: queue overflow"
attr unit b
vector 156 ResourceNetwork.mdAutonomousVehicle[0].wlan[0].queue flowQueueingTime:vector ETV
attr interpolationmode none
attr recordingmode vector
attr source queueingTime(demuxFlow(packetPulled))
attr title "flow queueing times"
attr unit s
vector 157 ResourceNetwork.mdAutonomousVehicle[0].wlan[0].queue flowIncomingDataRate:vector ETV
attr interpolationmode linear
attr recordingmode vector
attr source throughput(flowPacketLength(demuxFlow(packetPushStarted)))
attr title "flow specific incoming data rate"
attr unit bps
vector 158 ResourceNetwork.mdAutonomousVehicle[0].wlan[0].queue flowOutgoingDataRate:vector ETV
attr interpolationmode linear
attr recordingmode vector
attr source throughput(flowPacketLength(demuxFlow(packetPulled)))
attr title "flow specific outgoing data rate"
attr unit bps
vector 159 ResourceNetwork.mdAutonomousVehicle[0].wlan[0].mac passedUpPk:vector(packetBytes) ETV
attr interpolationmode none
attr recordingmode vector(packetBytes)
attr source packetSentToUpper
attr title "packets passed to higher layer, packetBytes"
vector 160 ResourceNetwork.mdAutonomousVehicle[0].wlan[0].mac sentDownPk:vector(packetBytes) ETV
attr interpolationmode none
attr recordingmode vector(packetBytes)
attr source packetSentToLower
attr title "packets sent to lower layer, packetBytes"
vector 161 ResourceNetwork.mdAutonomousVehicle[0].wlan[0].mac rcvdPkFromHl:vector(packetBytes) ETV
attr interpolationmode none
attr recordingmode vector(packetBytes)
attr source packetReceivedFromUpper
attr title "packets received from higher layer, packetBytes"
vector 162 ResourceNetwork.mdAutonomousVehicle[0].wlan[0].mac rcvdPkFromLl:vector(packetBytes) ETV
attr interpolationmode none
attr recordingmode vector(packetBytes)
attr source packetReceivedFromLower
attr title "packets received from lower layer, packetBytes"
vector 163 ResourceNetwork.mdAutonomousVehicle[0].wlan[0].mac packetDropIncorrectlyReceived:vector(packetBytes) ETV
attr interpolationmode none
attr recordingmode vector(packetBytes)
attr source packetDropReasonIsIncorrectlyReceived(packetDropped)
attr title "packet drop: incorrectly received, packetBytes"
vector 164 ResourceNetwork.mdAutonomousVehicle[0].wlan[0].mac packetDropInterfaceDown:vector(packetBytes) ETV
attr interpolationmode none
attr recordingmode vector(packetBytes)
attr source packetDropReasonIsInterfaceDown(packetDropped)
attr title "packet drop: interface down, packetBytes"
vector 165 ResourceNetwork.mdAutonomousVehicle[0].wlan[0].mac packetDropNotAddressedToUs:vector(packetBytes) ETV
attr interpolationmode none
attr recordingmode vector(packetBytes)
attr source packetDropReasonIsNotAddressedToUs(packetDropped)
attr title "packet drop: not addressed to us, packetBytes"
vector 166 ResourceNetwork.mdAutonomousVehicle[0].wlan[0].radio radioMode:vector ETV
attr interpolationmode sample-hold
attr recordingmode vector
attr source radioModeChanged
attr title "Radio mode"
vector 167 ResourceNetwork.mdAutonomousVehicle[0].wlan[0].radio receptionState:vector ETV
attr interpolationmode sample-hold
attr recordingmode vector
attr source receptionStateChanged
attr title "Radio reception state"
vector 168 ResourceNetwork.mdAutonomousVehicle[0].wlan[0].radio transmissionState:vector ETV
attr interpolationmode sample-hold
attr recordingmode vector
attr source transmissionStateChanged
attr title "Radio transmission state"
vector 169 ResourceNetwork.mdAutonomousVehicle[0].wlan[0].radio packetDropped:vector(packetBytes) ETV
attr interpolationmode none
attr recordingmode vector(packetBytes)
attr title "packets dropped, packetBytes"
vector 170 ResourceNetwork.mdAutonomousVehicle[0].wlan[0] packetDropInterfaceDown:vector(packetBytes) ETV
attr interpolationmode none
attr recordingmode vector(packetBytes)
attr source packetDropReasonIsInterfaceDown(packetDropped)
attr title "packet drops: interface down, packetBytes"
vector 171 ResourceNetwork.mdAutonomousVehicle[0].wlan[0] packetDropNoCarrier:vector(packetBytes) ETV
attr interpolationmode none
attr recordingmode vector(packetBytes)
attr source packetDropReasonIsNoCarrier(packetDropped)
attr title "packet drops: no carrier, packetBytes"
vector 172 ResourceNetwork.mdAutonomousVehicle[0].ipv4.ip packetDropAddressResolutionFailed:vector(packetBytes) ETV
attr interpolationmode none
attr recordingmode vector(packetBytes)
attr source packetDropReasonIsAddressResolutionFailed(packetDropped)
attr title "packet drop: address resolution failed, packetBytes"
vector 173 ResourceNetwork.mdAutonomousVehicle[0].ipv4.ip packetDropHopLimitReached:vector(packetBytes) ETV
attr interpolationmode none
attr recordingmode vector(packetBytes)
attr source packetDropReasonIsHopLimitReached(packetDropped)
attr title "packet drop: hop limit reached, packetBytes"
vector 174 ResourceNetwork.mdAutonomousVehicle[0].ipv4.ip packetDropForwardingDisabled:vector(packetBytes) ETV
attr interpolationmode none
attr recordingmode vector(packetBytes)
attr source packetDropReasonIsForwardingDisabled(packetDropped)
attr title "packet drop: forwarding disabled, packetBytes"
vector 175 ResourceNetwork.mdAutonomousVehicle[0].ipv4.ip packetDropNoInterfaceFound:vector(packetBytes) ETV
attr interpolationmode none
attr recordingmode vector(packetBytes)
attr source packetDropReasonIsNoInterfaceFound(packetDropped)
attr title "packet drop: no interface found, packetBytes"
vector 176 ResourceNetwork.mdAutonomousVehicle[0].ipv4.ip packetDropNoRouteFound:vector(packetBytes) ETV
attr interpolationmode none
attr recordingmode vector(packetBytes)
attr source packetDropReasonIsNoRouteFound(packetDropped)
attr title "packet drop: no route found, packetBytes"
vector 177 ResourceNetwork.mdAutonomousVehicle[0].ipv4.ip packetDropUndefined:vector(packetBytes) ETV
attr interpolationmode none
attr recordingmode vector(packetBytes)
attr source packetDropReasonIsUndefined(packetDropped)
attr title "packet drop: undefined, packetBytes"
vector 178 ResourceNetwork.mdAutonomousVehicle[0].udp packetSent:vector(packetBytes) ETV
attr interpolationmode none
attr recordingmode vector(packetBytes)
attr source packetSent
attr title "packets sent, packetBytes"
vector 179 ResourceNetwork.mdAutonomousVehicle[0].udp packetReceived:vector(packetBytes) ETV
attr interpolationmode none
attr recordingmode vector(packetBytes)
attr source packetReceived
attr title "packets received, packetBytes"
vector 180 ResourceNetwork.mdAutonomousVehicle[0].udp passedUpPk:vector(count) ETV
attr interpolationmode none
attr recordingmode vector(count)
attr source packetSentToUpper
attr title "packets passed up, count"
vector 181 ResourceNetwork.mdAutonomousVehicle[0].udp droppedPkWrongPort:vector(count) ETV
attr interpolationmode none
attr recordingmode vector(count)
attr source packetDropReasonIsNoPortFound(packetDropped)
attr title "packets dropped (wrong port), count"
vector 182 ResourceNetwork.mdAutonomousVehicle[0].udp droppedPkBadChecksum:vector(count) ETV
attr interpolationmode none
attr recordingmode vector(count)
attr source packetDropReasonIsIncorrectlyReceived(packetDropped)
attr title "packets dropped (checksum error), count"
vector 183 ResourceNetwork.mdAutonomousVehicle[0].app[0] packetReceived:vector(packetBytes) ETV
attr interpolationmode none
attr recordingmode vector(packetBytes)
attr source packetReceived
attr title "packets received, packetBytes"
vector 184 ResourceNetwork.mdAutonomousVehicle[0].app[0] throughput:vector ETV
attr recordingmode vector
attr source throughput(packetReceived)
attr title throughput
attr unit bps
vector 185 ResourceNetwork.mdAutonomousVehicle[0].app[0] packetSent:vector(packetBytes) ETV
attr interpolationmode none
attr recordingmode vector(packetBytes)
attr source packetSent
attr title "packets sent, packetBytes"
vector 186 ResourceNetwork.mdAutonomousVehicle[0].app[0] rcvdPkLifetime:vector ETV
attr interpolationmode none
attr recordingmode vector
attr source dataAge(packetReceived)
attr title "received packet lifetime"
attr unit s
vector 187 ResourceNetwork.mdAutonomousVehicle[0].app[0] rcvdPkSeqNo:vector ETV
attr interpolationmode none
attr recordingmode vector
attr source appPkSeqNo(packetReceived)
attr title "received packet sequence number"
vector 188 ResourceNetwork.baseStation.ethernet encapPk:vector(packetBytes) ETV
attr interpolationmode none
attr recordingmode vector(packetBytes)
attr source encapPk
attr title "packets encapsulated, packetBytes"
vector 189 ResourceNetwork.baseStation.ethernet decapPk:vector(packetBytes) ETV
attr interpolationmode none
attr recordingmode vector(packetBytes)
attr source decapPk
attr title "packets decapsulated, packetBytes"
vector 190 ResourceNetwork.baseStation.ethernet pauseSent:vector ETV
attr recordingmode vector
attr title "pause sent"
vector 191 ResourceNetwork.baseStation.lo[0].lo rcvdPkFromHl:vector(packetBytes) ETV
attr interpolationmode none
attr recordingmode vector(packetBytes)
attr source packetReceivedFromUpper
attr title "packets received from higher layer, packetBytes"
vector 192 ResourceNetwork.baseStation.lo[0].lo passedUpPk:vector(packetBytes) ETV
attr interpolationmode none
attr recordingmode vector(packetBytes)
attr source packetSentToUpper
attr title "packets passed to higher layer, packetBytes"
vector 193 ResourceNetwork.baseStation.lo[0] packetDropInterfaceDown:vector(packetBytes) ETV
attr interpolationmode none
attr recordingmode vector(packetBytes)
attr source packetDropReasonIsInterfaceDown(packetDropped)
attr title "packet drops: interface down, packetBytes"
vector 194 ResourceNetwork.baseStation.lo[0] packetDropNoCarrier:vector(packetBytes) ETV
attr interpolationmode none
attr recordingmode vector(packetBytes)
attr source packetDropReasonIsNoCarrier(packetDropped)
attr title "packet drops: no carrier, packetBytes"
vector 195 ResourceNetwork.baseStation.wlan[0].queue queueLength:vector ETV
attr autoWarmupFilter false
attr interpolationmode sample-hold
attr recordingmode vector
attr source "warmup(atomic(constant0(packetPushEnded) + count(packetPushStarted) - count(packetPulled) - count(packetRemoved) - count(packetDropped)))"
attr title "queue length"
attr unit pk
vector 196 ResourceNetwork.baseStation.wlan[0].queue queueBitLength:vector ETV
attr autoWarmupFilter false
attr interpolationmode sample-hold
attr recordingmode vector
attr source "warmup(atomic(constant0(packetPushEnded) + sum(packetLength(packetPushStarted)) - sum(packetLength(packetPulled)) - sum(packetLength(packetRemoved)) - sum(packetLength(packetDropped))))"
attr title "queue bit length"
attr unit b
vector 197 ResourceNetwork.baseStation.wlan[0].queue queueingTime:vector ETV
attr interpolationmode none
attr recordingmode vector
attr source queueingTime(packetPulled)
attr title "queueing times"
attr unit s
vector 198 ResourceNetwork.baseStation.wlan[0].queue incomingPacketLengths:vector ETV
attr interpolationmode none
attr recordingmode vector
attr source packetLength(packetPushStarted)
attr title "incoming packet lengths"
attr unit b
vector 199 ResourceNetwork.baseStation.wlan[0].queue incomingDataRate:vector ETV
attr interpolationmode linear
attr recordingmode vector
attr source throughput(packetPushStarted)
attr title "incoming datarate"
attr unit bps
vector 200 ResourceNetwork.baseStation.wlan[0].queue outgoingPacketLengths:vector ETV
attr interpolationmode none
attr recordingmode vector
attr source packetLength(packetPulled)
attr title "outgoing packet lengths"
attr unit b
vector 201 ResourceNetwork.baseStation.wlan[0].queue outgoingDataRate:vector ETV
attr interpolationmode linear
attr recordingmode vector
attr source throughput(packetPulled)
attr title "outgoing datarate"
attr unit bps
vector 202 ResourceNetwork.baseStation.wlan[0].queue droppedPacketLengthsQueueOverflow:vector ETV
attr interpolationmode none
attr recordingmode vector
attr source packetLength(packetDropReasonIsQueueOverflow(packetDropped))
attr title "dropped packet lengths: queue overflow"
attr unit b
vector 203 ResourceNetwork.baseStation.wlan[0].queue flowQueueingTime:vector ETV
attr interpolationmode none
attr recordingmode vector
attr source queueingTime(demuxFlow(packetPulled))
attr title "flow queueing times"
attr unit s
vector 204 ResourceNetwork.baseStation.wlan[0].queue flowIncomingDataRate:vector ETV
attr interpolationmode linear
attr recordingmode vector
attr source throughput(flowPacketLength(demuxFlow(packetPushStarted)))
attr title "flow specific incoming data rate"
attr unit bps
vector 205 ResourceNetwork.baseStation.wlan[0].queue flowOutgoingDataRate:vector ETV
attr interpolationmode linear
attr recordingmode vector
attr source throughput(flowPacketLength(demuxFlow(packetPulled)))
attr title "flow specific outgoing data rate"
attr unit bps
vector 206 ResourceNetwork.baseStation.wlan[0].mac passedUpPk:vector(packetBytes) ETV
attr interpolationmode none
attr recordingmode vector(packetBytes)
attr source packetSentToUpper
attr title "packets passed to higher layer, packetBytes"
vector 207 ResourceNetwork.baseStation.wlan[0].mac sentDownPk:vector(packetBytes) ETV
attr interpolationmode none
attr recordingmode vector(packetBytes)
attr source packetSentToLower
attr title "packets sent to lower layer, packetBytes"
vector 208 ResourceNetwork.baseStation.wlan[0].mac rcvdPkFromHl:vector(packetBytes) ETV
attr interpolationmode none
attr recordingmode vector(packetBytes)
attr source packetReceivedFromUpper
attr title "packets received from higher layer, packetBytes"
vector 209 ResourceNetwork.baseStation.wlan[0].mac rcvdPkFromLl:vector(packetBytes) ETV
attr interpolationmode none
attr recordingmode vector(packetBytes)
attr source packetReceivedFromLower
attr title "packets received from lower layer, packetBytes"
vector 210 ResourceNetwork.baseStation.wlan[0].mac packetDropIncorrectlyReceived:vector(packetBytes) ETV
attr interpolationmode none
attr recordingmode vector(packetBytes)
attr source packetDropReasonIsIncorrectlyReceived(packetDropped)
attr title "packet drop: incorrectly received, packetBytes"
vector 211 ResourceNetwork.baseStation.wlan[0].mac packetDropInterfaceDown:vector(packetBytes) ETV
attr interpolationmode none
attr recordingmode vector(packetBytes)
attr source packetDropReasonIsInterfaceDown(packetDropped)
attr title "packet drop: interface down, packetBytes"
vector 212 ResourceNetwork.baseStation.wlan[0].mac packetDropNotAddressedToUs:vector(packetBytes) ETV
attr interpolationmode none
attr recordingmode vector(packetBytes)
attr source packetDropReasonIsNotAddressedToUs(packetDropped)
attr title "packet drop: not addressed to us, packetBytes"
vector 213 ResourceNetwork.baseStation.wlan[0].radio radioMode:vector ETV
attr interpolationmode sample-hold
attr recordingmode vector
attr source radioModeChanged
attr title "Radio mode"
vector 214 ResourceNetwork.baseStation.wlan[0].radio receptionState:vector ETV
attr interpolationmode sample-hold
attr recordingmode vector
attr source receptionStateChanged
attr title "Radio reception state"
vector 215 ResourceNetwork.baseStation.wlan[0].radio transmissionState:vector ETV
attr interpolationmode sample-hold
attr recordingmode vector
attr source transmissionStateChanged
attr title "Radio transmission state"
vector 216 ResourceNetwork.baseStation.wlan[0].radio packetDropped:vector(packetBytes) ETV
attr interpolationmode none
attr recordingmode vector(packetBytes)
attr title "packets dropped, packetBytes"
vector 217 ResourceNetwork.baseStation.wlan[0] packetDropInterfaceDown:vector(packetBytes) ETV
attr interpolationmode none
attr recordingmode vector(packetBytes)
attr source packetDropReasonIsInterfaceDown(packetDropped)
attr title "packet drops: interface down, packetBytes"
vector 218 ResourceNetwork.baseStation.wlan[0] packetDropNoCarrier:vector(packetBytes) ETV
attr interpolationmode none
attr recordingmode vector(packetBytes)
attr source packetDropReasonIsNoCarrier(packetDropped)
attr title "packet drops: no carrier, packetBytes"
vector 219 ResourceNetwork.baseStation.eth[0].queue queueLength:vector ETV
attr autoWarmupFilter false
attr interpolationmode sample-hold
attr recordingmode vector
attr source "warmup(atomic(constant0(packetPushEnded) + count(packetPushStarted) - count(packetPulled) - count(packetRemoved) - count(packetDropped)))"
attr title "queue length"
attr unit pk
vector 220 ResourceNetwork.baseStation.eth[0].queue queueBitLength:vector ETV
attr autoWarmupFilter false
attr interpolationmode sample-hold
attr recordingmode vector
attr source "warmup(atomic(constant0(packetPushEnded) + sum(packetLength(packetPushStarted)) - sum(packetLength(packetPulled)) - sum(packetLength(packetRemoved)) - sum(packetLength(packetDropped))))"
attr title "queue bit length"
attr unit b
vector 221 ResourceNetwork.baseStation.eth[0].queue queueingTime:vector ETV
attr interpolationmode none
attr recordingmode vector
attr source queueingTime(packetPulled)
attr title "queueing times"
attr unit s
vector 222 ResourceNetwork.baseStation.eth[0].queue incomingPacketLengths:vector ETV
attr interpolationmode none
attr recordingmode vector
attr source packetLength(packetPushStarted)
attr title "incoming packet lengths"
attr unit b
vector 223 ResourceNetwork.baseStation.eth[0].queue incomingDataRate:vector ETV
attr interpolationmode linear
attr recordingmode vector
attr source throughput(packetPushStarted)
attr title "incoming datarate"
attr unit bps
vector 224 ResourceNetwork.baseStation.eth[0].queue outgoingPacketLengths:vector ETV
attr interpolationmode none
attr recordingmode vector
attr source packetLength(packetPulled)
attr title "outgoing packet lengths"
attr unit b
vector 225 ResourceNetwork.baseStation.eth[0].queue outgoingDataRate:vector ETV
attr interpolationmode linear
attr recordingmode vector
attr source throughput(packetPulled)
attr title "outgoing datarate"
attr unit bps
vector 226 ResourceNetwork.baseStation.eth[0].queue droppedPacketLengthsQueueOverflow:vector ETV
attr interpolationmode none
attr recordingmode vector
attr source packetLength(packetDropReasonIsQueueOverflow(packetDropped))
attr title "dropped packet lengths: queue overflow"
attr unit b
vector 227 ResourceNetwork.baseStation.eth[0].queue flowQueueingTime:vector ETV
attr interpolationmode none
attr recordingmode vector
attr source queueingTime(demuxFlow(packetPulled))
attr title "flow queueing times"
attr unit s
vector 228 ResourceNetwork.baseStation.eth[0].queue flowIncomingDataRate:vector ETV
attr interpolationmode linear
attr recordingmode vector
attr source throughput(flowPacketLength(demuxFlow(packetPushStarted)))
attr title "flow specific incoming data rate"
attr unit bps
vector 229 ResourceNetwork.baseStation.eth[0].queue flowOutgoingDataRate:vector ETV
attr interpolationmode linear
attr recordingmode vector
attr source throughput(flowPacketLength(demuxFlow(packetPulled)))
attr title "flow specific outgoing data rate"
attr unit bps
vector 230 ResourceNetwork.baseStation.eth[0].mac txPk:vector(packetBytes) ETV
attr interpolationmode none
attr recordingmode vector(packetBytes)
attr source packetSentToLower
attr title "packets transmitted, packetBytes"
vector 231 ResourceNetwork.baseStation.eth[0].mac rxPkOk:vector(packetBytes) ETV
attr interpolationmode none
attr recordingmode vector(packetBytes)
attr source rxPkOk
attr title "packets received OK, packetBytes"
vector 232 ResourceNetwork.baseStation.eth[0].mac passedUpPk:vector(packetBytes) ETV
attr interpolationmode none
attr recordingmode vector(packetBytes)
attr source packetSentToUpper
attr title "packets passed to higher layer, packetBytes"
vector 233 ResourceNetwork.baseStation.eth[0].mac txPausePkUnits:vector ETV
attr interpolationmode none
attr recordingmode vector
attr title "pause units sent"
vector 234 ResourceNetwork.baseStation.eth[0].mac rxPausePkUnits:vector ETV
attr interpolationmode none
attr recordingmode vector
attr title "pause units received"
vector 235 ResourceNetwork.baseStation.eth[0].mac packetReceivedFromUpper:vector(packetBytes) ETV
attr interpolationmode none
attr recordingmode vector(packetBytes)
attr source packetReceivedFromUpper
attr title "packet bytes from higher layer, packetBytes"
vector 236 ResourceNetwork.baseStation.eth[0].mac packetDropIncorrectlyReceived:vector(packetBytes) ETV
attr interpolationmode none
attr recordingmode vector(packetBytes)
attr source packetDropReasonIsIncorrectlyReceived(packetDropped)
attr title "packet drop: incorrectly received, packetBytes"
vector 237 ResourceNetwork.baseStation.eth[0].mac packetDropInterfaceDown:vector(packetBytes) ETV
attr interpolationmode none
attr recordingmode vector(packetBytes)
attr source packetDropReasonIsInterfaceDown(packetDropped)
attr title "packet drop: interface down, packetBytes"
vector 238 ResourceNetwork.baseStation.eth[0].mac packetDropNotAddressedToUs:vector(packetBytes) ETV
attr interpolationmode none
attr recordingmode vector(packetBytes)
attr source packetDropReasonIsNotAddressedToUs(packetDropped)
attr title "packet drop: not addressed to us, packetBytes"
vector 239 ResourceNetwork.baseStation.eth[0] packetDropInterfaceDown:vector(packetBytes) ETV
attr interpolationmode none
attr recordingmode vector(packetBytes)
attr source packetDropReasonIsInterfaceDown(packetDropped)
attr title "packet drops: interface down, packetBytes"
vector 240 ResourceNetwork.baseStation.eth[0] packetDropNoCarrier:vector(packetBytes) ETV
attr interpolationmode none
attr recordingmode vector(packetBytes)
attr source packetDropReasonIsNoCarrier(packetDropped)
attr title "packet drops: no carrier, packetBytes"
vector 241 ResourceNetwork.baseStation.ipv4.ip packetDropAddressResolutionFailed:vector(packetBytes) ETV
attr interpolationmode none
attr recordingmode vector(packetBytes)
attr source packetDropReasonIsAddressResolutionFailed(packetDropped)
attr title "packet drop: address resolution failed, packetBytes"
vector 242 ResourceNetwork.baseStation.ipv4.ip packetDropHopLimitReached:vector(packetBytes) ETV
attr interpolationmode none
attr recordingmode vector(packetBytes)
attr source packetDropReasonIsHopLimitReached(packetDropped)
attr title "packet drop: hop limit reached, packetBytes"
vector 243 ResourceNetwork.baseStation.ipv4.ip packetDropForwardingDisabled:vector(packetBytes) ETV
attr interpolationmode none
attr recordingmode vector(packetBytes)
attr source packetDropReasonIsForwardingDisabled(packetDropped)
attr title "packet drop: forwarding disabled, packetBytes"
vector 244 ResourceNetwork.baseStation.ipv4.ip packetDropNoInterfaceFound:vector(packetBytes) ETV
attr interpolationmode none
attr recordingmode vector(packetBytes)
attr source packetDropReasonIsNoInterfaceFound(packetDropped)
attr title "packet drop: no interface found, packetBytes"
vector 245 ResourceNetwork.baseStation.ipv4.ip packetDropNoRouteFound:vector(packetBytes) ETV
attr interpolationmode none
attr recordingmode vector(packetBytes)
attr source packetDropReasonIsNoRouteFound(packetDropped)
attr title "packet drop: no route found, packetBytes"
vector 246 ResourceNetwork.baseStation.ipv4.ip packetDropUndefined:vector(packetBytes) ETV
attr interpolationmode none
attr recordingmode vector(packetBytes)
attr source packetDropReasonIsUndefined(packetDropped)
attr title "packet drop: undefined, packetBytes"
vector 247 ResourceNetwork.baseStation.udp packetSent:vector(packetBytes) ETV
attr interpolationmode none
attr recordingmode vector(packetBytes)
attr source packetSent
attr title "packets sent, packetBytes"
vector 248 ResourceNetwork.baseStation.udp packetReceived:vector(packetBytes) ETV
attr interpolationmode none
attr recordingmode vector(packetBytes)
attr source packetReceived
attr title "packets received, packetBytes"
vector 249 ResourceNetwork.baseStation.udp passedUpPk:vector(count) ETV
attr interpolationmode none
attr recordingmode vector(count)
attr source packetSentToUpper
attr title "packets passed up, count"
vector 250 ResourceNetwork.baseStation.udp droppedPkWrongPort:vector(count) ETV
attr interpolationmode none
attr recordingmode vector(count)
attr source packetDropReasonIsNoPortFound(packetDropped)
attr title "packets dropped (wrong port), count"
vector 251 ResourceNetwork.baseStation.udp droppedPkBadChecksum:vector(count) ETV
attr interpolationmode none
attr recordingmode vector(count)
attr source packetDropReasonIsIncorrectlyReceived(packetDropped)
attr title "packets dropped (checksum error), count"
vector 252 ResourceNetwork.coreRouter.ethernet encapPk:vector(packetBytes) ETV
attr interpolationmode none
attr recordingmode vector(packetBytes)
attr source encapPk
attr title "packets encapsulated, packetBytes"
vector 253 ResourceNetwork.coreRouter.ethernet decapPk:vector(packetBytes) ETV
attr interpolationmode none
attr recordingmode vector(packetBytes)
attr source decapPk
attr title "packets decapsulated, packetBytes"
vector 254 ResourceNetwork.coreRouter.ethernet pauseSent:vector ETV
attr recordingmode vector
attr title "pause sent"
vector 255 ResourceNetwork.coreRouter.lo[0].lo rcvdPkFromHl:vector(packetBytes) ETV
attr interpolationmode none
attr recordingmode vector(packetBytes)
attr source packetReceivedFromUpper
attr title "packets received from higher layer, packetBytes"
vector 256 ResourceNetwork.coreRouter.lo[0].lo passedUpPk:vector(packetBytes) ETV
attr interpolationmode none
attr recordingmode vector(packetBytes)
attr source packetSentToUpper
attr title "packets passed to higher layer, packetBytes"
vector 257 ResourceNetwork.coreRouter.lo[0] packetDropInterfaceDown:vector(packetBytes) ETV
attr interpolationmode none
attr recordingmode vector(packetBytes)
attr source packetDropReasonIsInterfaceDown(packetDropped)
attr title "packet drops: interface down, packetBytes"
vector 258 ResourceNetwork.coreRouter.lo[0] packetDropNoCarrier:vector(packetBytes) ETV
attr interpolationmode none
attr recordingmode vector(packetBytes)
attr source packetDropReasonIsNoCarrier(packetDropped)
attr title "packet drops: no carrier, packetBytes"
vector 259 ResourceNetwork.coreRouter.eth[0].queue queueLength:vector ETV
attr autoWarmupFilter false
attr interpolationmode sample-hold
attr recordingmode vector
attr source "warmup(atomic(constant0(packetPushEnded) + count(packetPushStarted) - count(packetPulled) - count(packetRemoved) - count(packetDropped)))"
attr title "queue length"
attr unit pk
vector 260 ResourceNetwork.coreRouter.eth[0].queue queueBitLength:vector ETV
attr autoWarmupFilter false
attr interpolationmode sample-hold
attr recordingmode vector
attr source "warmup(atomic(constant0(packetPushEnded) + sum(packetLength(packetPushStarted)) - sum(packetLength(packetPulled)) - sum(packetLength(packetRemoved)) - sum(packetLength(packetDropped))))"
attr title "queue bit length"
attr unit b
vector 261 ResourceNetwork.coreRouter.eth[0].queue queueingTime:vector ETV
attr interpolationmode none
attr recordingmode vector
attr source queueingTime(packetPulled)
attr title "queueing times"
attr unit s
vector 262 ResourceNetwork.coreRouter.eth[0].queue incomingPacketLengths:vector ETV
attr interpolationmode none
attr recordingmode vector
attr source packetLength(packetPushStarted)
attr title "incoming packet lengths"
attr unit b
vector 263 ResourceNetwork.coreRouter.eth[0].queue incomingDataRate:vector ETV
attr interpolationmode linear
attr recordingmode vector
attr source throughput(packetPushStarted)
attr title "incoming datarate"
attr unit bps
vector 264 ResourceNetwork.coreRouter.eth[0].queue outgoingPacketLengths:vector ETV
attr interpolationmode none
attr recordingmode vector
attr source packetLength(packetPulled)
attr title "outgoing packet lengths"
attr unit b
vector 265 ResourceNetwork.coreRouter.eth[0].queue outgoingDataRate:vector ETV
attr interpolationmode linear
attr recordingmode vector
attr source throughput(packetPulled)
attr title "outgoing datarate"
attr unit bps
vector 266 ResourceNetwork.coreRouter.eth[0].queue droppedPacketLengthsQueueOverflow:vector ETV
attr interpolationmode none
attr recordingmode vector
attr source packetLength(packetDropReasonIsQueueOverflow(packetDropped))
attr title "dropped packet lengths: queue overflow"
attr unit b
vector 267 ResourceNetwork.coreRouter.eth[0].queue flowQueueingTime:vector ETV
attr interpolationmode none
attr recordingmode vector
attr source queueingTime(demuxFlow(packetPulled))
attr title "flow queueing times"
attr unit s
vector 268 ResourceNetwork.coreRouter.eth[0].queue flowIncomingDataRate:vector ETV
attr interpolationmode linear
attr recordingmode vector
attr source throughput(flowPacketLength(demuxFlow(packetPushStarted)))
attr title "flow specific incoming data rate"
attr unit bps
vector 269 ResourceNetwork.coreRouter.eth[0].queue flowOutgoingDataRate:vector ETV
attr interpolationmode linear
attr recordingmode vector
attr source throughput(flowPacketLength(demuxFlow(packetPulled)))
attr title "flow specific outgoing data rate"
attr unit bps
vector 270 ResourceNetwork.coreRouter.eth[0].mac txPk:vector(packetBytes) ETV
attr interpolationmode none
attr recordingmode vector(packetBytes)
attr source packetSentToLower
attr title "packets transmitted, packetBytes"
vector 271 ResourceNetwork.coreRouter.eth[0].mac rxPkOk:vector(packetBytes) ETV
attr interpolationmode none
attr recordingmode vector(packetBytes)
attr source rxPkOk
attr title "packets received OK, packetBytes"
vector 272 ResourceNetwork.coreRouter.eth[0].mac passedUpPk:vector(packetBytes) ETV
attr interpolationmode none
attr recordingmode vector(packetBytes)
attr source packetSentToUpper
attr title "packets passed to higher layer, packetBytes"
vector 273 ResourceNetwork.coreRouter.eth[0].mac txPausePkUnits:vector ETV
attr interpolationmode none
attr recordingmode vector
attr title "pause units sent"
vector 274 ResourceNetwork.coreRouter.eth[0].mac rxPausePkUnits:vector ETV
attr interpolationmode none
attr recordingmode vector
attr title "pause units received"
vector 275 ResourceNetwork.coreRouter.eth[0].mac packetReceivedFromUpper:vector(packetBytes) ETV
attr interpolationmode none
attr recordingmode vector(packetBytes)
attr source packetReceivedFromUpper
attr title "packet bytes from higher layer, packetBytes"
vector 276 ResourceNetwork.coreRouter.eth[0].mac packetDropIncorrectlyReceived:vector(packetBytes) ETV
attr interpolationmode none
attr recordingmode vector(packetBytes)
attr source packetDropReasonIsIncorrectlyReceived(packetDropped)
attr title "packet drop: incorrectly received, packetBytes"
vector 277 ResourceNetwork.coreRouter.eth[0].mac packetDropInterfaceDown:vector(packetBytes) ETV
attr interpolationmode none
attr recordingmode vector(packetBytes)
attr source packetDropReasonIsInterfaceDown(packetDropped)
attr title "packet drop: interface down, packetBytes"
vector 278 ResourceNetwork.coreRouter.eth[0].mac packetDropNotAddressedToUs:vector(packetBytes) ETV
attr interpolationmode none
attr recordingmode vector(packetBytes)
attr source packetDropReasonIsNotAddressedToUs(packetDropped)
attr title "packet drop: not addressed to us, packetBytes"
vector 279 ResourceNetwork.coreRouter.eth[0] packetDropInterfaceDown:vector(packetBytes) ETV
attr interpolationmode none
attr recordingmode vector(packetBytes)
attr source packetDropReasonIsInterfaceDown(packetDropped)
attr title "packet drops: interface down, packetBytes"
vector 280 ResourceNetwork.coreRouter.eth[0] packetDropNoCarrier:vector(packetBytes) ETV
attr interpolationmode none
attr recordingmode vector(packetBytes)
attr source packetDropReasonIsNoCarrier(packetDropped)
attr title "packet drops: no carrier, packetBytes"
vector 281 ResourceNetwork.coreRouter.eth[1].queue queueLength:vector ETV
attr autoWarmupFilter false
attr interpolationmode sample-hold
attr recordingmode vector
attr source "warmup(atomic(constant0(packetPushEnded) + count(packetPushStarted) - count(packetPulled) - count(packetRemoved) - count(packetDropped)))"
attr title "queue length"
attr unit pk
vector 282 ResourceNetwork.coreRouter.eth[1].queue queueBitLength:vector ETV
attr autoWarmupFilter false
attr interpolationmode sample-hold
attr recordingmode vector
attr source "warmup(atomic(constant0(packetPushEnded) + sum(packetLength(packetPushStarted)) - sum(packetLength(packetPulled)) - sum(packetLength(packetRemoved)) - sum(packetLength(packetDropped))))"
attr title "queue bit length"
attr unit b
vector 283 ResourceNetwork.coreRouter.eth[1].queue queueingTime:vector ETV
attr interpolationmode none
attr recordingmode vector
attr source queueingTime(packetPulled)
attr title "queueing times"
attr unit s
vector 284 ResourceNetwork.coreRouter.eth[1].queue incomingPacketLengths:vector ETV
attr interpolationmode none
attr recordingmode vector
attr source packetLength(packetPushStarted)
attr title "incoming packet lengths"
attr unit b
vector 285 ResourceNetwork.coreRouter.eth[1].queue incomingDataRate:vector ETV
attr interpolationmode linear
attr recordingmode vector
attr source throughput(packetPushStarted)
attr title "incoming datarate"
attr unit bps
vector 286 ResourceNetwork.coreRouter.eth[1].queue outgoingPacketLengths:vector ETV
attr interpolationmode none
attr recordingmode vector
attr source packetLength(packetPulled)
attr title "outgoing packet lengths"
attr unit b
vector 287 ResourceNetwork.coreRouter.eth[1].queue outgoingDataRate:vector ETV
attr interpolationmode linear
attr recordingmode vector
attr source throughput(packetPulled)
attr title "outgoing datarate"
attr unit bps
vector 288 ResourceNetwork.coreRouter.eth[1].queue droppedPacketLengthsQueueOverflow:vector ETV
attr interpolationmode none
attr recordingmode vector
attr source packetLength(packetDropReasonIsQueueOverflow(packetDropped))
attr title "dropped packet lengths: queue overflow"
attr unit b
vector 289 ResourceNetwork.coreRouter.eth[1].queue flowQueueingTime:vector ETV
attr interpolationmode none
attr recordingmode vector
attr source queueingTime(demuxFlow(packetPulled))
attr title "flow queueing times"
attr unit s
vector 290 ResourceNetwork.coreRouter.eth[1].queue flowIncomingDataRate:vector ETV
attr interpolationmode linear
attr recordingmode vector
attr source throughput(flowPacketLength(demuxFlow(packetPushStarted)))
attr title "flow specific incoming data rate"
attr unit bps
vector 291 ResourceNetwork.coreRouter.eth[1].queue flowOutgoingDataRate:vector ETV
attr interpolationmode linear
attr recordingmode vector
attr source throughput(flowPacketLength(demuxFlow(packetPulled)))
attr title "flow specific outgoing data rate"
attr unit bps
vector 292 ResourceNetwork.coreRouter.eth[1].mac txPk:vector(packetBytes) ETV
attr interpolationmode none
attr recordingmode vector(packetBytes)
attr source packetSentToLower
attr title "packets transmitted, packetBytes"
vector 293 ResourceNetwork.coreRouter.eth[1].mac rxPkOk:vector(packetBytes) ETV
attr interpolationmode none
attr recordingmode vector(packetBytes)
attr source rxPkOk
attr title "packets received OK, packetBytes"
vector 294 ResourceNetwork.coreRouter.eth[1].mac passedUpPk:vector(packetBytes) ETV
attr interpolationmode none
attr recordingmode vector(packetBytes)
attr source packetSentToUpper
attr title "packets passed to higher layer, packetBytes"
vector 295 ResourceNetwork.coreRouter.eth[1].mac txPausePkUnits:vector ETV
attr interpolationmode none
attr recordingmode vector
attr title "pause units sent"
vector 296 ResourceNetwork.coreRouter.eth[1].mac rxPausePkUnits:vector ETV
attr interpolationmode none
attr recordingmode vector
attr title "pause units received"
vector 297 ResourceNetwork.coreRouter.eth[1].mac packetReceivedFromUpper:vector(packetBytes) ETV
attr interpolationmode none
attr recordingmode vector(packetBytes)
attr source packetReceivedFromUpper
attr title "packet bytes from higher layer, packetBytes"
vector 298 ResourceNetwork.coreRouter.eth[1].mac packetDropIncorrectlyReceived:vector(packetBytes) ETV
attr interpolationmode none
attr recordingmode vector(packetBytes)
attr source packetDropReasonIsIncorrectlyReceived(packetDropped)
attr title "packet drop: incorrectly received, packetBytes"
vector 299 ResourceNetwork.coreRouter.eth[1].mac packetDropInterfaceDown:vector(packetBytes) ETV
attr interpolationmode none
[...]
attr interpolationmode none
attr recordingmode vector(packetBytes)
attr source packetReceivedFromUpper
attr title "packet bytes from higher layer, packetBytes"
vector 333 ResourceNetwork.edgeServer.eth[0].mac packetDropIncorrectlyReceived:vector(packetBytes) ETV
attr interpolationmode none
attr recordingmode vector(packetBytes)
attr source packetDropReasonIsIncorrectlyReceived(packetDropped)
attr title "packet drop: incorrectly received, packetBytes"
vector 334 ResourceNetwork.edgeServer.eth[0].mac packetDropInterfaceDown:vector(packetBytes) ETV
attr interpolationmode none
attr recordingmode vector(packetBytes)
attr source packetDropReasonIsInterfaceDown(packetDropped)
attr title "packet drop: interface down, packetBytes"
vector 335 ResourceNetwork.edgeServer.eth[0].mac packetDropNotAddressedToUs:vector(packetBytes) ETV
attr interpolationmode none
attr recordingmode vector(packetBytes)
attr source packetDropReasonIsNotAddressedToUs(packetDropped)
attr title "packet drop: not addressed to us, packetBytes"
vector 336 ResourceNetwork.edgeServer.eth[0] packetDropInterfaceDown:vector(packetBytes) ETV
attr interpolationmode none
attr recordingmode vector(packetBytes)
attr source packetDropReasonIsInterfaceDown(packetDropped)
attr title "packet drops: interface down, packetBytes"
vector 337 ResourceNetwork.edgeServer.eth[0] packetDropNoCarrier:vector(packetBytes) ETV
attr interpolationmode none
attr recordingmode vector(packetBytes)
attr source packetDropReasonIsNoCarrier(packetDropped)
attr title "packet drops: no carrier, packetBytes"
vector 338 ResourceNetwork.edgeServer.ipv4.ip packetDropAddressResolutionFailed:vector(packetBytes) ETV
attr interpolationmode none
attr recordingmode vector(packetBytes)
attr source packetDropReasonIsAddressResolutionFailed(packetDropped)
attr title "packet drop: address resolution failed, packetBytes"
vector 339 ResourceNetwork.edgeServer.ipv4.ip packetDropHopLimitReached:vector(packetBytes) ETV
attr interpolationmode none
attr recordingmode vector(packetBytes)
attr source packetDropReasonIsHopLimitReached(packetDropped)
attr title "packet drop: hop limit reached, packetBytes"
vector 340 ResourceNetwork.edgeServer.ipv4.ip packetDropForwardingDisabled:vector(packetBytes) ETV
attr interpolationmode none
attr recordingmode vector(packetBytes)
attr source packetDropReasonIsForwardingDisabled(packetDropped)
attr title "packet drop: forwarding disabled, packetBytes"
vector 341 ResourceNetwork.edgeServer.ipv4.ip packetDropNoInterfaceFound:vector(packetBytes) ETV
attr interpolationmode none
attr recordingmode vector(packetBytes)
attr source packetDropReasonIsNoInterfaceFound(packetDropped)
attr title "packet drop: no interface found, packetBytes"
vector 342 ResourceNetwork.edgeServer.ipv4.ip packetDropNoRouteFound:vector(packetBytes) ETV
attr interpolationmode none
attr recordingmode vector(packetBytes)
attr source packetDropReasonIsNoRouteFound(packetDropped)
attr title "packet drop: no route found, packetBytes"
vector 343 ResourceNetwork.edgeServer.ipv4.ip packetDropUndefined:vector(packetBytes) ETV
attr interpolationmode none
attr recordingmode vector(packetBytes)
attr source packetDropReasonIsUndefined(packetDropped)
attr title "packet drop: undefined, packetBytes"
vector 344 ResourceNetwork.edgeServer.udp packetSent:vector(packetBytes) ETV
attr interpolationmode none
attr recordingmode vector(packetBytes)
attr source packetSent
attr title "packets sent, packetBytes"
vector 345 ResourceNetwork.edgeServer.udp packetReceived:vector(packetBytes) ETV
attr interpolationmode none
attr recordingmode vector(packetBytes)
attr source packetReceived
attr title "packets received, packetBytes"
vector 346 ResourceNetwork.edgeServer.udp passedUpPk:vector(count) ETV
attr interpolationmode none
attr recordingmode vector(count)
attr source packetSentToUpper
attr title "packets passed up, count"
vector 347 ResourceNetwork.edgeServer.udp droppedPkWrongPort:vector(count) ETV
attr interpolationmode none
attr recordingmode vector(count)
attr source packetDropReasonIsNoPortFound(packetDropped)
attr title "packets dropped (wrong port), count"
vector 348 ResourceNetwork.edgeServer.udp droppedPkBadChecksum:vector(count) ETV
attr interpolationmode none
attr recordingmode vector(count)
attr source packetDropReasonIsIncorrectlyReceived(packetDropped)
attr title "packets dropped (checksum error), count"
vector 349 ResourceNetwork latencyOverTime:vector ETV
attr recordingmode vector
attr source latency
vector 350 ResourceNetwork systemResourceUtilisationOverTime:vector ETV
attr recordingmode vector
attr source resourceUtilisation
vector 351 ResourceNetwork energyConsumptionOverTime:vector ETV
attr recordingmode vector
attr source energyConsumption
vector 352 ResourceNetwork tasksProcessedOverTime:vector ETV
attr recordingmode vector
attr source tasksProcessed
vector 353 ResourceNetwork maxQueueLengthOverTime:vector ETV
attr recordingmode vector
attr source maxQueueLength
vector 354 ResourceNetwork parallelTasksOverTime:vector ETV
attr recordingmode vector
attr source parallelTasks
4	177	0.089260381577	1
7	0	0	0
7	0	0	0
7	0	0	0
7	0	0	0
7	0	0	0
8	0	0	0
8	0	0	0
8	0	0	0
8	0	0	0
8	0	0	0
19	0	0	0
19	0	0	0
21	0	0	0
21	0	0	0
22	0	0	0
22	0	0	0
24	0	0	31
41	0	0	0
41	0	0	0
55	0	0	0
55	0	0	0
55	0	0	2
56	0	0	1
58	0	0	0
58	180	0.089260381577	0
69	0	0	0
70	0	0	0
71	0	0	0
79	0	0	0
79	0	0	0
79	0	0	0
79	0	0	0
79	0	0	0
80	0	0	0
80	0	0	0
80	0	0	0
80	0	0	0
80	0	0	0
91	0	0	0
91	0	0	0
93	0	0	0
93	0	0	0
94	0	0	0
94	0	0	0
96	0	0	31
113	0	0	0
113	0	0	0
127	0	0	0
127	0	0	0
127	0	0	2
128	0	0	1
130	0	0	0
141	0	0	0
142	0	0	0
143	0	0	0
148	0	0	0
148	0	0	0
148	0	0	0
148	0	0	0
148	0	0	0
148	6	0.011724077117	0
148	12	0.017527302376	1
148	13	0.020398077117	0
148	38	0.026559391736	1
148	39	0.029072077117	0
148	70	0.048259822907	0
148	77	0.053770800554	1
148	81	0.055585570798	2
148	82	0.056933822907	1
148	107	0.06328608087	2
148	108	0.065607822907	1
148	131	0.074281822907	0
148	141	0.081484512558	1
148	142	0.082955822907	0
148	153	0.083341268724	1
148	171	0.084684622652	2
148	176	0.087159062036	3
148	184	0.090087643925	4
148	186	0.091629822907	3
148	212	0.094788893653	4
148	214	0.100303822907	3
148	240	0.106303469381	4
148	241	0.108977822907	3
148	267	0.113476422303	4
148	269	0.117651822907	3
148	275	0.126325822907	2
148	284	0.127829715896	3
149	0	0	0
149	0	0	0
149	0	0	0
149	0	0	0
149	0	0	0
149	6	0.011724077117	0
149	12	0.017527302376	8416
149	13	0.020398077117	0
149	38	0.026559391736	8416
149	39	0.029072077117	0
149	70	0.048259822907	0
149	77	0.053770800554	8416
149	81	0.055585570798	16832
149	82	0.056933822907	8416
149	107	0.06328608087	16832
149	108	0.065607822907	8416
149	131	0.074281822907	0
149	141	0.081484512558	8416
149	142	0.082955822907	0
149	153	0.083341268724	8416
149	171	0.084684622652	16832
149	176	0.087159062036	25248
149	184	0.090087643925	33664
149	186	0.091629822907	25248
149	212	0.094788893653	33664
149	214	0.100303822907	25248
149	240	0.106303469381	33664
149	241	0.108977822907	25248
149	267	0.113476422303	33664
149	269	0.117651822907	25248
149	275	0.126325822907	16832
149	284	0.127829715896	25248
150	6	0.011724077117	0
150	13	0.020398077117	0.002870774741
150	39	0.029072077117	0.002512685381
150	70	0.048259822907	0
150	82	0.056933822907	0.003163022353
150	108	0.065607822907	0.010022252109
150	131	0.074281822907	0.010995742037
150	142	0.082955822907	0.001471310349
150	186	0.091629822907	0.008288554183
150	214	0.100303822907	0.015619200255
150	241	0.108977822907	0.021818760871
150	269	0.117651822907	0.027564178982
150	275	0.126325822907	0.031536929254
151	6	0.011724077117	8416
151	12	0.017527302376	8416
151	38	0.026559391736	8416
151	70	0.048259822907	8416
151	77	0.053770800554	8416
151	81	0.055585570798	8416
151	107	0.06328608087	8416
151	141	0.081484512558	8416
151	153	0.083341268724	8416
151	171	0.084684622652	8416
151	176	0.087159062036	8416
151	184	0.090087643925	8416
151	212	0.094788893653	8416
151	240	0.106303469381	8416
151	267	0.113476422303	8416
151	284	0.127829715896	8416
153	6	0.011724077117	8416
153	13	0.020398077117	8416
153	39	0.029072077117	8416
153	70	0.048259822907	8416
153	82	0.056933822907	8416
153	108	0.065607822907	8416
153	131	0.074281822907	8416
153	142	0.082955822907	8416
153	186	0.091629822907	8416
153	214	0.100303822907	8416
153	241	0.108977822907	8416
153	269	0.117651822907	8416
153	275	0.126325822907	8416
160	6	0.011724077117	1075
160	13	0.020398077117	1075
160	39	0.029072077117	1075
160	70	0.048259822907	1075
160	82	0.056933822907	1075
160	108	0.065607822907	1075
160	131	0.074281822907	1075
160	142	0.082955822907	1075
160	186	0.091629822907	1075
160	214	0.100303822907	1075
160	241	0.108977822907	1075
160	269	0.117651822907	1075
160	275	0.126325822907	1075
161	6	0.011724077117	1052
161	13	0.020398077117	1052
161	39	0.029072077117	1052
161	70	0.048259822907	1052
161	82	0.056933822907	1052
161	108	0.065607822907	1052
161	131	0.074281822907	1052
161	142	0.082955822907	1052
161	186	0.091629822907	1052
161	214	0.100303822907	1052
161	241	0.108977822907	1052
161	269	0.117651822907	1052
161	275	0.126325822907	1052
166	0	0	0
166	0	0	0
166	0	0	2
166	6	0.011724077117	3
166	13	0.020398077117	2
166	13	0.020398077117	3
166	39	0.029072077117	2
166	39	0.029072077117	3
166	45	0.037746077117	2
166	70	0.048259822907	3
166	82	0.056933822907	2
166	82	0.056933822907	3
166	108	0.065607822907	2
166	108	0.065607822907	3
166	131	0.074281822907	2
166	131	0.074281822907	3
166	142	0.082955822907	2
166	142	0.082955822907	3
166	186	0.091629822907	2
166	186	0.091629822907	3
166	214	0.100303822907	2
166	214	0.100303822907	3
166	241	0.108977822907	2
166	241	0.108977822907	3
166	269	0.117651822907	2
166	269	0.117651822907	3
166	275	0.126325822907	2
166	275	0.126325822907	3
167	0	0	1
167	6	0.011724077117	0
167	13	0.020398077117	1
167	13	0.020398077117	0
167	39	0.029072077117	1
167	39	0.029072077117	0
167	45	0.037746077117	1
167	70	0.048259822907	0
167	82	0.056933822907	1
167	82	0.056933822907	0
167	108	0.065607822907	1
167	108	0.065607822907	0
167	131	0.074281822907	1
167	131	0.074281822907	0
167	142	0.082955822907	1
167	142	0.082955822907	0
167	186	0.091629822907	1
167	186	0.091629822907	0
167	214	0.100303822907	1
167	214	0.100303822907	0
167	241	0.108977822907	1
167	241	0.108977822907	0
167	269	0.117651822907	1
167	269	0.117651822907	0
167	275	0.126325822907	1
167	275	0.126325822907	0
168	6	0.011724077117	1
168	7	0.011724077117	2
168	13	0.020398077117	1
168	13	0.020398077117	0
168	13	0.020398077117	1
168	14	0.020398077117	2
168	39	0.029072077117	1
168	39	0.029072077117	0
168	39	0.029072077117	1
168	40	0.029072077117	2
168	45	0.037746077117	1
168	45	0.037746077117	0
168	70	0.048259822907	1
168	71	0.048259822907	2
168	82	0.056933822907	1
168	82	0.056933822907	0
168	82	0.056933822907	1
168	83	0.056933822907	2
168	108	0.065607822907	1
168	108	0.065607822907	0
168	108	0.065607822907	1
168	109	0.065607822907	2
168	131	0.074281822907	1
168	131	0.074281822907	0
168	131	0.074281822907	1
168	132	0.074281822907	2
168	142	0.082955822907	1
168	142	0.082955822907	0
168	142	0.082955822907	1
168	143	0.082955822907	2
168	186	0.091629822907	1
168	186	0.091629822907	0
168	186	0.091629822907	1
168	187	0.091629822907	2
168	214	0.100303822907	1
168	214	0.100303822907	0
168	214	0.100303822907	1
168	215	0.100303822907	2
168	241	0.108977822907	1
168	241	0.108977822907	0
168	241	0.108977822907	1
168	242	0.108977822907	2
168	269	0.117651822907	1
168	269	0.117651822907	0
168	269	0.117651822907	1
168	270	0.117651822907	2
168	275	0.126325822907	1
168	275	0.126325822907	0
168	275	0.126325822907	1
168	276	0.126325822907	2
178	4	0.011724077117	1032
178	10	0.017527302376	1032
178	36	0.026559391736	1032
178	68	0.048259822907	1032
178	75	0.053770800554	1032
178	79	0.055585570798	1032
178	105	0.06328608087	1032
178	139	0.081484512558	1032
178	151	0.083341268724	1032
178	169	0.084684622652	1032
178	174	0.087159062036	1032
178	182	0.090087643925	1032
178	210	0.094788893653	1032
178	238	0.106303469381	1032
178	265	0.113476422303	1032
178	282	0.127829715896	1032
180	0	0	0
181	0	0	0
182	0	0	0
188	19	0.020398830448	1052
188	49	0.037746830448	1052
188	88	0.056934576238	1052
188	114	0.065608576238	1052
188	148	0.082956576238	1052
188	192	0.091630576238	1052
188	220	0.100304576238	1052
188	247	0.108978576238	1052
195	0	0	0
195	0	0	0
195	0	0	0
195	0	0	0
195	0	0	0
196	0	0	0
196	0	0	0
196	0	0	0
196	0	0	0
196	0	0	0
206	17	0.020398830448	1052
206	47	0.037746830448	1052
206	86	0.056934576238	1052
206	112	0.065608576238	1052
206	146	0.082956576238	1052
206	190	0.091630576238	1052
206	218	0.100304576238	1052
206	245	0.108978576238	1052
209	17	0.020398830448	1075
209	43	0.029072830448	1075
209	47	0.037746830448	1075
209	86	0.056934576238	1075
209	112	0.065608576238	1075
209	135	0.074282576238	1075
209	146	0.082956576238	1075
209	190	0.091630576238	1075
209	218	0.100304576238	1075
209	245	0.108978576238	1075
209	273	0.117652576238	1075
209	279	0.126326576238	1075
210	43	0.029072830448	1075
210	135	0.074282576238	1075
210	273	0.117652576238	1075
210	279	0.126326576238	1075
213	0	0	0
213	0	0	0
213	0	0	2
214	0	0	1
214	8	0.011724830448	3
214	15	0.020398830448	2
214	16	0.020398830448	3
214	41	0.029072830448	2
214	42	0.029072830448	3
214	46	0.037746830448	1
214	72	0.048260576238	3
214	84	0.056934576238	2
214	85	0.056934576238	3
214	110	0.065608576238	2
214	111	0.065608576238	3
214	133	0.074282576238	2
214	134	0.074282576238	3
214	144	0.082956576238	2
214	145	0.082956576238	3
214	188	0.091630576238	2
214	189	0.091630576238	3
214	216	0.100304576238	2
214	217	0.100304576238	3
214	243	0.108978576238	2
214	244	0.108978576238	3
214	271	0.117652576238	2
214	272	0.117652576238	3
214	277	0.126326576238	2
214	278	0.126326576238	3
219	0	0	0
219	0	0	0
219	0	0	0
219	0	0	0
219	0	0	0
219	20	0.020398830448	0
219	50	0.037746830448	0
219	89	0.056934576238	0
219	115	0.065608576238	0
219	149	0.082956576238	0
219	193	0.091630576238	0
219	221	0.100304576238	0
219	248	0.108978576238	0
220	0	0	0
220	0	0	0
220	0	0	0
220	0	0	0
220	0	0	0
220	20	0.020398830448	0
220	50	0.037746830448	0
220	89	0.056934576238	0
220	115	0.065608576238	0
220	149	0.082956576238	0
220	193	0.091630576238	0
220	221	0.100304576238	0
220	248	0.108978576238	0
221	20	0.020398830448	0
221	50	0.037746830448	0
221	89	0.056934576238	0
221	115	0.065608576238	0
221	149	0.082956576238	0
221	193	0.091630576238	0
221	221	0.100304576238	0
221	248	0.108978576238	0
222	20	0.020398830448	8560
222	50	0.037746830448	8560
222	89	0.056934576238	8560
222	115	0.065608576238	8560
222	149	0.082956576238	8560
222	193	0.091630576238	8560
222	221	0.100304576238	8560
222	248	0.108978576238	8560
224	20	0.020398830448	8560
224	50	0.037746830448	8560
224	89	0.056934576238	8560
224	115	0.065608576238	8560
224	149	0.082956576238	8560
224	193	0.091630576238	8560
224	221	0.100304576238	8560
224	248	0.108978576238	8560
230	21	0.021261230448	1070
230	51	0.038609230448	1070
230	90	0.057796976238	1070
230	116	0.066470976238	1070
230	154	0.083818976238	1070
230	194	0.092492976238	1070
230	222	0.101166976238	1070
230	249	0.109840976238	1070
235	20	0.020398830448	1070
235	50	0.037746830448	1070
235	89	0.056934576238	1070
235	115	0.065608576238	1070
235	149	0.082956576238	1070
235	193	0.091630576238	1070
235	221	0.100304576238	1070
235	248	0.108978576238	1070
249	0	0	0
250	0	0	0
251	0	0	0
252	25	0.021261280448	1052
252	55	0.038609280448	1052
252	94	0.057797026238	1052
252	120	0.066471026238	1052
252	158	0.083819026238	1052
252	198	0.092493026238	1052
252	226	0.101167026238	1052
252	253	0.109841026238	1052
253	23	0.021261280448	1052
253	53	0.038609280448	1052
253	92	0.057797026238	1052
253	118	0.066471026238	1052
253	156	0.083819026238	1052
253	196	0.092493026238	1052
253	224	0.101167026238	1052
253	251	0.109841026238	1052
259	0	0	0
259	0	0	0
259	0	0	0
259	0	0	0
259	0	0	0
260	0	0	0
260	0	0	0
260	0	0	0
260	0	0	0
260	0	0	0
271	22	0.021261280448	1070
271	52	0.038609280448	1070
271	91	0.057797026238	1070
271	117	0.066471026238	1070
271	155	0.083819026238	1070
271	195	0.092493026238	1070
271	223	0.101167026238	1070
271	250	0.109841026238	1070
272	22	0.021261280448	1070
272	52	0.038609280448	1070
272	91	0.057797026238	1070
272	117	0.066471026238	1070
272	155	0.083819026238	1070
272	195	0.092493026238	1070
272	223	0.101167026238	1070
272	250	0.109841026238	1070
281	0	0	0
281	0	0	0
281	0	0	0
281	0	0	0
281	0	0	0
281	26	0.021261280448	0
281	56	0.038609280448	0
281	95	0.057797026238	0
281	121	0.066471026238	0
281	159	0.083819026238	0
281	199	0.092493026238	0
281	227	0.101167026238	0
281	254	0.109841026238	0
282	0	0	0
282	0	0	0
282	0	0	0
282	0	0	0
282	0	0	0
282	26	0.021261280448	0
282	56	0.038609280448	0
282	95	0.057797026238	0
282	121	0.066471026238	0
282	159	0.083819026238	0
282	199	0.092493026238	0
282	227	0.101167026238	0
282	254	0.109841026238	0
283	26	0.021261280448	0
283	56	0.038609280448	0
283	95	0.057797026238	0
283	121	0.066471026238	0
283	159	0.083819026238	0
283	199	0.092493026238	0
283	227	0.101167026238	0
283	254	0.109841026238	0
284	26	0.021261280448	8560
284	56	0.038609280448	8560
284	95	0.057797026238	8560
284	121	0.066471026238	8560
284	159	0.083819026238	8560
284	199	0.092493026238	8560
284	227	0.101167026238	8560
284	254	0.109841026238	8560
286	26	0.021261280448	8560
286	56	0.038609280448	8560
286	95	0.057797026238	8560
286	121	0.066471026238	8560
286	159	0.083819026238	8560
286	199	0.092493026238	8560
286	227	0.101167026238	8560
286	254	0.109841026238	8560
292	28	0.022123680448	1070
292	59	0.039471680448	1070
292	97	0.058659426238	1070
292	124	0.067333426238	1070
292	162	0.084681426238	1070
292	202	0.093355426238	1070
292	230	0.102029426238	1070
292	257	0.110703426238	1070
297	26	0.021261280448	1070
297	56	0.038609280448	1070
297	95	0.057797026238	1070
297	121	0.066471026238	1070
297	159	0.083819026238	1070
297	199	0.092493026238	1070
297	227	0.101167026238	1070
297	254	0.109841026238	1070
310	30	0.022123730448	1052
310	61	0.039471730448	1052
310	99	0.058659476238	1052
310	126	0.067333476238	1052
310	164	0.084681476238	1052
310	204	0.093355476238	1052
310	232	0.102029476238	1052
310	259	0.110703476238	1052
316	0	0	0
316	0	0	0
316	0	0	0
316	0	0	0
316	0	0	0
317	0	0	0
317	0	0	0
317	0	0	0
317	0	0	0
317	0	0	0
328	29	0.022123730448	1070
328	60	0.039471730448	1070
328	98	0.058659476238	1070
328	125	0.067333476238	1070
328	163	0.084681476238	1070
328	203	0.093355476238	1070
328	231	0.102029476238	1070
328	258	0.110703476238	1070
329	29	0.022123730448	1070
329	60	0.039471730448	1070
329	98	0.058659476238	1070
329	125	0.067333476238	1070
329	163	0.084681476238	1070
329	203	0.093355476238	1070
329	231	0.102029476238	1070
329	258	0.110703476238	1070
345	32	0.022123730448	1032
345	63	0.039471730448	1032
345	101	0.058659476238	1032
345	128	0.067333476238	1032
345	166	0.084681476238	1032
345	206	0.093355476238	1032
345	234	0.102029476238	1032
345	261	0.110703476238	1032
346	0	0	0
346	32	0.022123730448	1
346	63	0.039471730448	2
346	101	0.058659476238	3
346	128	0.067333476238	4
346	166	0.084681476238	5
346	206	0.093355476238	6
346	234	0.102029476238	7
346	261	0.110703476238	8
347	0	0	0
348	0	0	0
349	73	0.053223730448	41.499653331
349	137	0.080771730448	54.212338712
349	185	0.090359476238	42.099653331
349	268	0.113933476238	60.162675684
350	33	0.022123730448	0.0311
350	64	0.039471730448	0.0724
350	102	0.058659476238	0.073
350	129	0.067333476238	0.1196
350	167	0.084681476238	0.1243
350	207	0.093355476238	0.137
350	235	0.102029476238	0.1858
350	262	0.110703476238	0.224
351	73	0.053223730448	31100000000
351	137	0.080771730448	41300000000
351	185	0.090359476238	31700000000
351	268	0.113933476238	46600000000
352	73	0.053223730448	1
352	137	0.080771730448	2
352	185	0.090359476238	3
352	268	0.113933476238	4
353	33	0.022123730448	0
353	64	0.039471730448	0
353	102	0.058659476238	0
353	129	0.067333476238	0
353	167	0.084681476238	0
353	207	0.093355476238	0
353	235	0.102029476238	0
353	262	0.110703476238	0
354	73	0.053223730448	1
354	137	0.080771730448	2
354	185	0.090359476238	2
354	268	0.113933476238	4

